102

C	-4.6800	2.3619	1.6995
C	-4.7350	1.1309	0.8191
C	-4.7512	-0.1558	1.3970
C	-4.7201	-1.3024	0.5757
C	-4.7427	-1.1584	-0.8270
C	-4.7267	0.1255	-1.4103
C	-4.7615	1.2674	-0.5843
C	-4.8629	2.6468	-1.2071
N	-3.6363	3.3796	-1.5305
C	-4.6631	0.2748	-2.9161
C	-4.8326	-2.3856	-1.7143
N	-3.6018	-3.0274	-2.1808
C	-4.6537	-2.6824	1.1958
C	-4.8511	-0.3094	2.9038
N	-3.6265	-0.3877	3.7061
C	4.6492	2.3919	1.7125
C	4.7159	1.1640	0.8276
C	4.7494	-0.1226	1.4051
C	4.7315	-1.2697	0.5843
C	4.7571	-1.1250	-0.8183
C	4.7237	0.1591	-1.4013
C	4.7404	1.3028	-0.5757
C	4.8356	2.6844	-1.1977
N	3.6083	3.4127	-1.5308
C	4.6604	0.3074	-2.9070
C	4.8686	-2.3544	-1.7026
N	3.6490	-3.0170	-2.1747
C	4.6744	-2.6500	1.2055
C	4.8503	-0.2718	2.9118
N	3.6257	-0.3548	3.7135
C	0.0212	-4.8716	-3.5106
C	-1.1901	-4.3100	-3.1067
C	-1.2005	-3.1722	-2.2795
C	-2.4623	-2.5564	-1.8357
C	0.0226	-2.6174	-1.8728
C	1.2454	-3.1732	-2.2795
C	2.5041	-2.5534	-1.8357
C	1.2335	-4.3121	-3.1051
C	-0.0331	5.4647	-2.4808
C	1.1837	4.8468	-2.1906
C	1.2051	3.5679	-1.6056
C	2.4681	2.8822	-1.2901
C	-0.0124	2.9312	-1.3213
C	-1.2395	3.5470	-1.6085
C	-2.4954	2.8483	-1.2959
C	-1.2395	4.8258	-2.1941
C	-0.0016	-0.5980	5.9815
C	-1.2132	-0.5343	5.2924
C	-1.2239	-0.3955	3.8926
C	-2.4832	-0.3231	3.1332
C	-0.0003	-0.3221	3.2094
C	1.2226	-0.3837	3.8952
C	2.4830	-0.3020	3.1384
C	1.2107	-0.5242	5.2948
H	-4.1486	3.1847	1.2068
H	-5.6876	2.7280	1.9559
H	-4.1549	2.1609	2.6408
H	-5.4568	3.3117	-0.5604
H	-5.4433	2.5965	-2.1419
H	-5.6674	0.3101	-3.3689
H	-4.1240	-0.5594	-3.3805
H	-4.1400	1.1932	-3.2082
H	-5.4156	-3.1736	-1.2118
H	-5.4194	-2.1561	-2.6177
H	-4.1216	-3.3898	0.5488
H	-4.1256	-2.6685	2.1566
H	-5.6588	-3.0965	1.3786
H	-5.4366	-1.2087	3.1523
H	-5.4412	0.5183	3.3280
H	4.1186	2.1851	2.6495
H	4.1186	3.2154	1.2200
H	5.6539	2.7598	1.9777
H	5.4194	3.3518	-0.5443
H	5.4250	2.6383	-2.1270
H	4.1316	-0.5333	-3.3716
H	4.1269	1.2198	-3.1992
H	5.6648	0.3544	-3.3583
H	5.4609	-3.1312	-1.1938
H	5.4561	-2.1182	-2.6038
H	4.1470	-3.3610	0.5587
H	5.6810	-3.0585	1.3923
H	4.1437	-2.6368	2.1650
H	5.4403	-1.1673	3.1630
H	5.4360	0.5600	3.3340
H	0.0204	-5.7558	-4.1500
H	-2.1450	-4.7338	-3.4183
H	-2.3631	-1.6653	-1.1862
H	0.0235	-1.7338	-1.2273
H	2.3981	-1.6604	-1.1901
H	2.1872	-4.7404	-3.4144
H	-0.0415	6.4568	-2.9349
H	2.1340	5.3347	-2.4085
H	2.3698	1.8784	-0.8335
H	-0.0041	1.9356	-0.8672
H	-2.3921	1.8413	-0.8477
H	-2.1983	5.2955	-2.4141
H	-0.0022	-0.7063	7.0673
H	-2.1678	-0.5897	5.8161
H	-2.3781	-0.2107	2.0366
H	0.0004	-0.2136	2.1205
H	2.3794	-0.1934	2.0414
H	2.1648	-0.5720	5.8201
