102

C	-4.6600	1.4208	2.5758
C	-4.7254	0.6988	1.2461
C	-4.7435	1.4308	0.0404
C	-4.7220	0.7566	-1.1986
C	-4.7523	-0.6530	-1.2282
C	-4.7344	-1.3899	-0.0260
C	-4.7596	-0.7105	1.2091
C	-4.8588	-1.4978	2.5019
N	-3.6310	-1.9154	3.1833
C	-4.6789	-2.9030	-0.0633
C	-4.8525	-1.3820	-2.5548
N	-3.6272	-1.7725	-3.2552
C	-4.6577	1.5415	-2.4922
C	-4.8353	2.9455	0.0739
N	-3.6063	3.7449	0.0888
C	4.6691	1.3804	2.5618
C	4.7255	0.6530	1.2340
C	4.7570	1.3842	0.0280
C	4.7295	0.7110	-1.2112
C	4.7475	-0.6989	-1.2403
C	4.7160	-1.4353	-0.0375
C	4.7423	-0.7568	1.1989
C	4.8397	-1.5446	2.4930
N	3.6135	-1.9583	3.1808
C	4.6445	-2.9474	-0.0752
C	4.8486	-1.4258	-2.5697
N	3.6235	-1.8063	-3.2794
C	4.6703	1.4976	-2.5043
C	4.8661	2.8973	0.0649
N	3.6460	3.7096	0.0871
C	-0.0198	-2.8845	-5.2665
C	-1.2264	-2.5464	-4.6536
C	-1.2271	-1.8654	-3.4227
C	-2.4837	-1.4940	-2.7508
C	0.0007	-1.5366	-2.8280
C	1.2187	-1.8783	-3.4356
C	2.4826	-1.5208	-2.7721
C	1.1973	-2.5573	-4.6673
C	-0.0248	-3.1342	5.1180
C	1.1911	-2.7767	4.5346
C	1.2106	-2.0389	3.3373
C	2.4726	-1.6481	2.6895
C	-0.0079	-1.6718	2.7464
C	-1.2341	-2.0261	3.3282
C	-2.4910	-1.6233	2.6793
C	-1.2321	-2.7647	4.5252
C	0.0310	6.0096	0.1425
C	-1.1843	5.3243	0.1268
C	-1.2027	3.9181	0.0924
C	-2.4661	3.1622	0.0770
C	0.0172	3.2246	0.0752
C	1.2438	3.9063	0.0925
C	2.5001	3.1384	0.0744
C	1.2396	5.3126	0.1254
H	-4.1281	0.8277	3.3291
H	-5.6645	1.6355	2.9755
H	-4.1302	2.3769	2.4897
H	-5.4461	-0.9346	3.2442
H	-5.4449	-2.4162	2.3398
H	-5.6857	-3.3513	-0.0791
H	-4.1460	-3.2640	-0.9510
H	-4.1537	-3.3086	0.8096
H	-5.4359	-0.7833	-3.2721
H	-5.4436	-2.3037	-2.4353
H	-4.1324	0.9836	-3.2764
H	-4.1240	2.4904	-2.3628
H	-5.6635	1.7792	-2.8758
H	-5.4230	3.3059	-0.7852
H	-5.4193	3.2677	0.9503
H	4.1432	2.3385	2.4744
H	4.1391	0.7932	3.3210
H	5.6769	1.5930	2.9546
H	5.4301	-0.9814	3.2329
H	5.4235	-2.4643	2.3301
H	4.1095	-3.3023	-0.9642
H	4.1131	-3.3469	0.7968
H	5.6464	-3.4064	-0.0890
H	5.4407	-0.8284	-3.2809
H	5.4318	-2.3523	-2.4490
H	4.1361	0.9460	-3.2869
H	5.6763	1.7278	-2.8916
H	4.1453	2.4510	-2.3706
H	5.4539	3.2536	-0.7958
H	5.4578	3.2109	0.9395
H	-0.0280	-3.4103	-6.2227
H	-2.1848	-2.7983	-5.1079
H	-2.3769	-0.9597	-1.7870
H	0.0091	-1.0047	-1.8717
H	2.3841	-0.9894	-1.8059
H	2.1473	-2.8167	-5.1351
H	-0.0318	-3.7069	6.0468
H	2.1421	-3.0580	4.9874
H	2.3727	-1.0709	1.7500
H	-0.0011	-1.0988	1.8142
H	-2.3893	-1.0551	1.7346
H	-2.1903	-3.0357	4.9689
H	0.0364	7.1004	0.1685
H	-2.1360	5.8559	0.1409
H	-2.3670	2.0597	0.0531
H	0.0120	2.1306	0.0489
H	2.3905	2.0370	0.0476
H	2.1965	5.8347	0.1379
