252

C	0.6825	2.3448	7.6414
C	0.9307	0.8607	7.8012
C	-0.1621	-0.0063	8.0106
C	0.0371	-1.3954	8.1062
C	1.3498	-1.9157	8.0677
C	2.4443	-1.0585	7.8338
C	2.2342	0.3337	7.7329
C	3.4229	1.2692	7.6084
N	3.7044	1.6546	6.2232
C	3.8410	-1.6224	7.6694
C	1.5757	-3.3901	8.3562
N	1.6195	-4.3576	7.2572
C	-1.1486	-2.3283	8.2394
C	-1.5521	0.5783	8.1773
N	-2.2216	0.7951	6.8945
C	0.1435	-6.2406	-5.6999
C	0.6699	-6.7840	-4.3876
C	2.0616	-6.8676	-4.1638
C	2.5527	-7.2839	-2.9095
C	1.6502	-7.6984	-1.9065
C	0.2615	-7.6329	-2.1306
C	-0.2237	-7.2010	-3.3829
C	-1.7158	-7.2525	-3.6660
N	-2.4155	-6.0343	-3.2551
C	-0.7216	-8.0100	-1.0428
C	2.1813	-8.2681	-0.6016
N	2.2576	-7.2590	0.4550
C	4.0405	-7.2732	-2.6228
C	3.0223	-6.5861	-5.3074
N	3.5873	-5.2470	-5.4914
C	-7.0863	4.6443	0.4515
C	-7.3763	3.5589	-0.5638
C	-8.0914	2.4009	-0.1941
C	-8.3117	1.3732	-1.1365
C	-7.8863	1.5447	-2.4692
C	-7.1514	2.6913	-2.8384
C	-6.9233	3.7079	-1.8912
C	-6.2704	5.0076	-2.3251
N	-4.8083	4.9913	-2.2382
C	-6.6191	2.8305	-4.2491
C	-8.3027	0.5481	-3.5379
N	-7.4582	-0.6072	-3.8411
C	-9.0082	0.0940	-0.7179
C	-8.7129	2.2951	1.1881
N	-7.9194	1.8264	2.3243
C	4.3911	4.3476	-5.6813
C	4.9454	4.8510	-4.3651
C	5.9678	4.1353	-3.7128
C	6.4646	4.5761	-2.4681
C	5.9588	5.7613	-1.8953
C	4.9150	6.4665	-2.5317
C	4.4470	6.0398	-3.7903
C	3.5021	6.9226	-4.5883
N	2.0540	6.7634	-4.4815
C	4.3061	7.6834	-1.8656
C	6.6007	6.3485	-0.6491
N	6.1867	5.9050	0.6825
C	7.5282	3.7680	-1.7549
C	6.6017	2.9374	-4.3985
N	5.9099	1.6750	-4.1282
C	1.9687	-5.3055	2.5399
C	1.8270	-6.6850	2.7564
C	1.8485	-7.6113	1.6214
C	1.6272	-7.1564	4.0785
O	1.5025	-8.5161	4.2328
C	1.3205	-9.0125	5.5622
C	1.5809	-6.2475	5.1331
C	1.7128	-4.8666	4.9171
C	1.6466	-3.9298	6.0463
C	1.9067	-4.3967	3.5945
O	2.0271	-3.0362	3.4392
C	2.2157	-2.5446	2.1133
C	-3.6636	0.9332	4.3889
C	-4.2752	0.7092	5.6334
C	-3.4704	0.4999	6.8402
C	-5.6907	0.7080	5.7117
O	-6.2376	0.4712	6.9496
C	-7.6648	0.4666	7.0460
C	-6.4438	0.9795	4.5733
C	-5.8358	1.2262	3.3333
C	-6.6622	1.6048	2.1777
C	-4.4224	1.1677	3.2415
O	-3.8830	1.3651	1.9919
C	-2.4585	1.4100	1.8883
C	5.4239	5.0840	3.2839
C	5.0373	4.3842	2.1301
C	5.4040	4.8935	0.8008
C	4.3223	3.1693	2.2746
O	3.9657	2.5304	1.1097
C	3.2461	1.3043	1.2235
C	4.0302	2.6842	3.5484
C	4.4161	3.3867	4.7015
C	4.0905	2.8654	6.0326
C	5.1204	4.6094	4.5577
O	5.4847	5.2482	5.7185
C	6.2091	6.4752	5.5935
C	-3.8243	-3.5605	-2.6917
C	-4.0307	-4.3318	-3.8489
C	-3.2315	-5.5318	-4.1117
C	-5.0378	-3.9391	-4.7684
O	-5.2070	-4.7392	-5.8742
C	-6.2267	-4.3631	-6.8044
C	-5.8013	-2.8037	-4.5108
C	-5.5983	-2.0341	-3.3554
C	-6.4416	-0.8591	-3.0976
C	-4.5911	-2.4227	-2.4360
O	-4.4584	-1.6306	-1.3228
C	-3.4633	-1.9900	-0.3619
C	4.6535	-2.6455	-5.9131
C	3.9461	-2.9944	-4.7518
C	3.3591	-4.3365	-4.6145
C	3.8338	-2.0398	-3.7096
O	3.1278	-2.4331	-2.5976
C	2.9914	-1.4863	-1.5393
C	4.4343	-0.7890	-3.8473
C	5.1463	-0.4433	-5.0077
C	5.7819	0.8726	-5.1254
C	5.2476	-1.3930	-6.0574
O	5.9640	-1.0105	-7.1668
C	6.0933	-1.9625	-8.2267
C	-0.7396	6.4388	-4.4426
C	0.0896	5.8378	-3.4837
C	1.5500	5.9792	-3.5979
C	-0.5080	5.1150	-2.4202
O	0.3519	4.5631	-1.5023
C	-0.2206	3.8218	-0.4242
C	-1.8981	5.0080	-2.3509
C	-2.7258	5.6051	-3.3166
C	-4.1842	5.4924	-3.2447
C	-2.1255	6.3340	-4.3758
O	-2.9764	6.9137	-5.2849
C	-2.3868	7.6559	-6.3561
H	0.5544	2.8449	8.6160
H	1.5038	2.8453	7.1198
H	-0.2279	2.5240	7.0554
H	4.3205	0.7582	7.9877
H	3.2800	2.1529	8.2596
H	4.3633	-1.1249	6.8418
H	4.4545	-1.4882	8.5755
H	3.8259	-2.6931	7.4387
H	0.8061	-3.7524	9.0549
H	2.5199	-3.5190	8.9118
H	-1.4475	-2.4755	9.2903
H	-2.0216	-1.9394	7.7022
H	-0.9310	-3.3164	7.8171
H	-1.4628	1.5632	8.6629
H	-2.1578	-0.0441	8.8617
H	-0.8028	-5.7063	-5.5583
H	0.8448	-5.5280	-6.1498
H	-0.0371	-7.0394	-6.4381
H	-2.1535	-8.0842	-3.0917
H	-1.8941	-7.4900	-4.7318
H	-1.6006	-7.3540	-1.0705
H	-1.0761	-9.0486	-1.1524
H	-0.2832	-7.9163	-0.0446
H	3.2012	-8.6466	-0.7653
H	1.5753	-9.1427	-0.2953
H	4.4844	-8.2800	-2.6927
H	4.5862	-6.6243	-3.3164
H	4.2359	-6.8966	-1.6104
H	3.8856	-7.2693	-5.2408
H	2.5488	-6.8529	-6.2648
H	-7.7651	5.5055	0.3366
H	-7.1845	4.2838	1.4808
H	-6.0602	5.0174	0.3372
H	-6.6151	5.2782	-3.3421
H	-6.6181	5.8157	-1.6637
H	-7.3175	3.3814	-4.9008
H	-6.4388	1.8525	-4.7101
H	-5.6652	3.3696	-4.2629
H	-9.2976	0.1395	-3.2930
H	-8.4604	1.0748	-4.4917
H	-8.7327	-0.7460	-1.3657
H	-8.7329	-0.1895	0.3058
H	-10.1062	0.1889	-0.7483
H	-9.6066	1.6546	1.1502
H	-9.1066	3.2815	1.4881
H	4.3571	3.2523	-5.7043
H	3.3681	4.7024	-5.8522
H	5.0037	4.6749	-6.5378
H	3.7064	7.9816	-4.3571
H	3.7405	6.8367	-5.6601
H	4.2770	7.5641	-0.7753
H	4.8733	8.6045	-2.0796
H	3.2743	7.8493	-2.1964
H	6.4945	7.4434	-0.6567
H	7.6918	6.1872	-0.6906
H	7.3014	2.6953	-1.8128
H	8.5264	3.9179	-2.1982
H	7.5988	4.0254	-0.6928
H	7.6310	2.8214	-4.0262
H	6.6917	3.1301	-5.4851
H	2.1188	-4.9895	1.5091
H	1.4791	-8.6328	1.8228
H	2.1765	-8.7557	6.2066
H	1.2499	-10.1009	5.4640
H	0.3943	-8.6231	6.0144
H	1.4398	-6.5640	6.1647
H	1.6247	-2.8576	5.7975
H	2.2777	-1.4548	2.2103
H	1.3669	-2.8085	1.4601
H	3.1485	-2.9275	1.6676
H	-2.5753	0.9204	4.3701
H	-4.0088	0.0968	7.7161
H	-7.8888	0.2435	8.0947
H	-8.1091	-0.3088	6.4015
H	-8.0886	1.4482	6.7806
H	-7.5299	1.0411	4.5990
H	-6.1460	1.7238	1.2128
H	-1.9987	0.4550	2.1931
H	-2.2478	1.5957	0.8292
H	-2.0359	2.2248	2.4986
H	5.9803	6.0058	3.1265
H	4.9963	4.3538	-0.0677
H	3.8398	0.5345	1.7441
H	2.2893	1.4426	1.7554
H	3.0494	0.9822	0.1949
H	3.4973	1.7479	3.7050
H	4.2013	3.5775	6.8697
H	7.1700	6.3227	5.0766
H	5.6222	7.2364	5.0547
H	6.3945	6.8142	6.6182
H	-3.0456	-3.8979	-2.0098
H	-3.3821	-5.9973	-5.1014
H	-6.0316	-3.3681	-7.2356
H	-6.1959	-5.1178	-7.5975
H	-7.2220	-4.3663	-6.3317
H	-6.5924	-2.4723	-5.1805
H	-6.1645	-0.2275	-2.2397
H	-2.4522	-1.9619	-0.8006
H	-3.6499	-2.9924	0.0557
H	-3.5438	-1.2412	0.4342
H	4.7226	-3.4104	-6.6842
H	2.7370	-4.5160	-3.7242
H	2.3852	-1.9851	-0.7751
H	2.4744	-0.5732	-1.8791
H	3.9705	-1.2124	-1.1125
H	4.3842	-0.0338	-3.0650
H	6.1618	1.1349	-6.1286
H	6.6153	-2.8716	-7.8878
H	5.1107	-2.2396	-8.6412
H	6.6890	-1.4648	-8.9995
H	-0.2381	6.9916	-5.2342
H	2.1678	5.3928	-2.8996
H	0.6273	3.4803	0.1807
H	-0.7878	2.9510	-0.7931
H	-0.8824	4.4505	0.1934
H	-2.3961	4.4635	-1.5504
H	-4.7328	5.8853	-4.1186
H	-3.2257	8.0269	-6.9544
H	-1.7427	7.0173	-6.9817
H	-1.7989	8.5076	-5.9783
