264

C	-3.6596	7.4000	7.9364
C	-4.6322	7.4456	6.7770
C	-5.7135	6.5407	6.7382
C	-6.5831	6.5166	5.6310
C	-6.4070	7.4509	4.5889
C	-5.3312	8.3586	4.6177
C	-4.4677	8.3807	5.7349
C	-3.4097	9.4646	5.8564
N	-2.0628	9.2417	5.3277
C	-5.0950	9.2989	3.4536
C	-7.4294	7.5164	3.4673
N	-7.1992	6.5084	2.4344
C	-7.6985	5.4969	5.5366
C	-5.9781	5.6352	7.9326
N	-5.1628	4.4244	7.9005
C	8.4319	5.9560	-3.7402
C	9.1679	4.8549	-3.0069
C	9.6555	3.7294	-3.7030
C	10.2788	2.6762	-3.0002
C	10.4843	2.7866	-1.6092
C	9.9903	3.9066	-0.9069
C	9.3636	4.9524	-1.6134
C	8.9713	6.2275	-0.8854
N	7.5786	6.2367	-0.4371
C	10.1324	3.9868	0.5989
C	11.3214	1.7437	-0.8871
N	10.6880	0.5633	-0.2972
C	10.7309	1.4338	-3.7403
C	9.6056	3.6871	-5.2214
N	8.4559	3.1002	-5.9108
C	2.1518	-7.2747	7.6123
C	1.4447	-8.2025	6.6468
C	0.0625	-8.4468	6.7582
C	-0.5988	-9.2520	5.8069
C	0.1428	-9.8760	4.7841
C	1.5281	-9.6298	4.6607
C	2.1785	-8.8230	5.6139
C	3.6900	-8.6697	5.5745
N	4.1142	-7.4293	4.9282
C	2.3062	-10.2218	3.5038
C	-0.5289	-10.8818	3.8636
N	-1.0749	-10.4536	2.5736
C	-2.0998	-9.4331	5.8896
C	-0.7127	-7.9033	7.9485
N	-1.4274	-6.6664	7.6401
C	-4.8975	0.7786	-10.0745
C	-5.1116	-0.6475	-9.6143
C	-4.1035	-1.6084	-9.8294
C	-4.2506	-2.9203	-9.3361
C	-5.4404	-3.2809	-8.6705
C	-6.4516	-2.3244	-8.4453
C	-6.3049	-1.0202	-8.9616
C	-7.4544	-0.0321	-8.8749
N	-7.5410	0.8885	-7.7398
C	-7.6761	-2.7008	-7.6374
C	-5.6635	-4.7210	-8.2393
N	-5.2361	-4.9652	-6.8631
C	-3.1333	-3.9288	-9.5091
C	-2.8765	-1.2291	-10.6414
N	-1.8370	-0.6193	-9.8150
C	5.8868	7.2924	2.6433
C	4.6292	7.4878	3.2091
C	3.4605	7.1379	2.5071
C	3.6045	6.5724	1.2219
C	4.8574	6.3889	0.6510
C	6.0227	6.7532	1.3521
C	7.3615	6.6171	0.7683
C	2.1219	7.3799	3.0873
C	1.0702	6.4610	2.9175
C	-0.1911	6.7113	3.4565
C	-0.4481	7.8926	4.1716
C	-1.7886	8.1478	4.7188
C	0.6018	8.8141	4.3437
C	1.8601	8.5596	3.8169
C	-2.8925	-4.1408	7.3236
C	-3.5173	-2.9027	7.2433
C	-3.0957	-1.8183	8.0422
C	-2.0174	-2.0227	8.9224
C	-1.4005	-3.2673	9.0149
C	-1.8268	-4.3451	8.2203
C	-1.1679	-5.6466	8.3717
C	-3.7762	-0.5083	7.9730
C	-3.0394	0.6936	8.0353
C	-3.6732	1.9281	8.0010
C	-5.0755	2.0078	7.9155
C	-5.7735	3.2983	7.9171
C	-5.8145	0.8149	7.8465
C	-5.1763	-0.4234	7.8668
C	-5.8329	1.5362	-4.5678
C	-5.8727	2.3718	-3.4529
C	-6.8073	3.4200	-3.3709
C	-7.7040	3.5940	-4.4475
C	-7.6724	2.7557	-5.5524
C	-6.7337	1.7098	-5.6316
C	-6.6832	0.8080	-6.7907
C	-6.8638	4.3120	-2.1942
C	-6.6573	3.8138	-0.8895
C	-6.7550	4.6414	0.2219
C	-7.0503	6.0091	0.0693
C	-7.2090	6.9073	1.2167
C	-7.2277	6.5165	-1.2288
C	-7.1437	5.6832	-2.3406
C	9.4874	-1.8284	0.7553
C	8.8432	-2.9262	1.3088
C	7.4357	-2.9808	1.3994
C	6.6989	-1.8924	0.8973
C	7.3452	-0.7948	0.3291
C	8.7473	-0.7393	0.2575
C	9.4129	0.4370	-0.3230
C	6.7736	-4.1443	2.0263
C	5.6640	-3.9760	2.8825
C	5.0763	-5.0610	3.5201
C	5.5703	-6.3630	3.3153
C	5.0067	-7.5233	4.0130
C	6.6555	-6.5406	2.4404
C	7.2525	-5.4502	1.8126
C	6.2582	1.8859	-7.2977
C	5.1404	1.3481	-7.9185
C	3.9622	1.0722	-7.1921
C	3.9553	1.3492	-5.8129
C	5.0831	1.8761	-5.1852
C	6.2479	2.1601	-5.9171
C	7.4219	2.7376	-5.2462
C	2.7751	0.5138	-7.8730
C	2.9156	-0.4572	-8.8820
C	1.7999	-0.9718	-9.5358
C	0.5066	-0.5251	-9.2160
C	-0.6420	-1.0611	-9.9533
C	0.3588	0.4409	-8.2034
C	1.4721	0.9444	-7.5427
C	-2.0950	-9.6222	0.0017
C	-2.5636	-9.1482	-1.2159
C	-2.5538	-7.7688	-1.5192
C	-2.0647	-6.8826	-0.5421
C	-1.5862	-7.3582	0.6780
C	-1.5891	-8.7332	0.9692
C	-1.0608	-9.2112	2.2566
C	-3.0337	-7.2842	-2.8311
C	-3.7504	-6.0737	-2.9521
C	-4.2174	-5.6309	-4.1835
C	-3.9756	-6.3822	-5.3492
C	-4.4721	-5.9751	-6.6663
C	-3.2461	-7.5778	-5.2381
C	-2.7881	-8.0249	-4.0023
H	-2.6731	7.7856	7.6539
H	-3.5187	6.3690	8.2827
H	-4.0136	7.9969	8.7938
H	-3.7710	10.3938	5.3867
H	-3.2791	9.7376	6.9155
H	-5.3357	8.8155	2.4988
H	-5.7092	10.2115	3.5237
H	-4.0464	9.6120	3.3930
H	-7.4774	8.5374	3.0460
H	-8.4258	7.3156	3.8941
H	-7.9023	5.2387	4.4912
H	-8.6356	5.8657	5.9859
H	-7.4358	4.5648	6.0481
H	-5.7100	6.1803	8.8516
H	-7.0574	5.4080	8.0088
H	9.0972	6.7986	-3.9924
H	7.6138	6.3523	-3.1259
H	7.9893	5.5970	-4.6764
H	9.6724	6.4205	-0.0514
H	9.0855	7.0745	-1.5805
H	9.2565	4.4646	1.0542
H	10.2218	2.9925	1.0514
H	11.0182	4.5689	0.9013
H	11.8934	2.2208	-0.0750
H	12.0983	1.3609	-1.5678
H	10.0790	1.2187	-4.5957
H	10.7108	0.5499	-3.0917
H	11.7583	1.5346	-4.1276
H	9.7119	4.7075	-5.6250
H	10.4919	3.1577	-5.6043
H	2.5429	-7.8123	8.4921
H	1.4819	-6.4899	7.9797
H	2.9926	-6.7700	7.1227
H	4.1553	-9.5586	5.1097
H	4.0643	-8.6352	6.6105
H	1.6554	-10.4488	2.6520
H	3.0692	-9.5221	3.1411
H	2.8230	-11.1544	3.7840
H	0.1730	-11.7009	3.6384
H	-1.3555	-11.3805	4.3941
H	-2.5802	-8.5202	6.2618
H	-2.5359	-9.6519	4.9078
H	-2.3792	-10.2589	6.5654
H	-0.0418	-7.7869	8.8197
H	-1.4712	-8.6473	8.2400
H	-5.5212	1.4850	-9.5156
H	-5.1314	0.9067	-11.1448
H	-3.8534	1.0803	-9.9246
H	-7.4715	0.5964	-9.7795
H	-8.4155	-0.5698	-8.9070
H	-8.1456	-1.8222	-7.1803
H	-8.4424	-3.2011	-8.2529
H	-7.4068	-3.3839	-6.8222
H	-5.1780	-5.4144	-8.9524
H	-6.7417	-4.9400	-8.2859
H	-3.1170	-4.6549	-8.6893
H	-2.1518	-3.4416	-9.5128
H	-3.2266	-4.4937	-10.4510
H	-3.1706	-0.4804	-11.3938
H	-2.4995	-2.1017	-11.2076
H	6.7819	7.5658	3.2067
H	4.5478	7.8978	4.2165
H	2.7107	6.3130	0.6524
H	4.9610	5.9769	-0.3532
H	8.1989	6.8962	1.4419
H	1.2520	5.5291	2.3801
H	-0.9919	5.9800	3.3250
H	-2.5375	7.3467	4.5734
H	0.3978	9.7344	4.8914
H	2.6539	9.2984	3.9376
H	-3.2149	-4.9741	6.6987
H	-4.3340	-2.7561	6.5347
H	-1.6882	-1.2063	9.5665
H	-0.5811	-3.4143	9.7223
H	-0.4200	-5.7005	9.1902
H	-1.9505	0.6484	8.0888
H	-3.1009	2.8552	8.0396
H	-6.8815	3.2397	7.9456
H	-6.9044	0.8614	7.7878
H	-5.7693	-1.3385	7.8395
H	-5.0908	0.7364	-4.6205
H	-5.1505	2.2306	-2.6475
H	-8.4559	4.3827	-4.3924
H	-8.3774	2.8820	-6.3743
H	-5.8674	0.0610	-6.7919
H	-6.4566	2.7503	-0.7512
H	-6.6203	4.2464	1.2292
H	-7.3685	7.9762	0.9619
H	-7.4398	7.5796	-1.3641
H	-7.2729	6.1014	-3.3395
H	10.5754	-1.7815	0.7059
H	9.4345	-3.7488	1.7141
H	5.6089	-1.9197	0.9310
H	6.7558	0.0359	-0.0658
H	8.7511	1.1999	-0.7757
H	5.2883	-2.9698	3.0748
H	4.2359	-4.9242	4.2011
H	5.4276	-8.5068	3.7161
H	7.0385	-7.5474	2.2581
H	8.0882	-5.6102	1.1302
H	7.1604	2.1161	-7.8646
H	5.1580	1.1645	-8.9939
H	3.0661	1.1207	-5.2236
H	5.0643	2.0723	-4.1107
H	7.3564	2.8424	-4.1465
H	3.9094	-0.8289	-9.1345
H	1.9281	-1.7328	-10.3091
H	-0.4077	-1.8792	-10.6667
H	-0.6448	0.7906	-7.9596
H	1.3429	1.7113	-6.7774
H	-2.1114	-10.6873	0.2339
H	-2.9711	-9.8507	-1.9445
H	-2.0243	-5.8138	-0.7565
H	-1.1906	-6.6564	1.4157
H	-0.6462	-8.4357	2.9281
H	-3.9697	-5.4934	-2.0546
H	-4.7877	-4.7054	-4.2679
H	-4.1520	-6.6249	-7.5083
H	-3.0372	-8.1629	-6.1367
H	-2.2077	-8.9464	-3.9435
