276

C	-2.1246	10.3637	-6.6028
C	-2.2315	9.3305	-7.7056
C	-3.4912	8.8114	-8.0760
C	-3.5795	7.7908	-9.0446
C	-2.4127	7.3454	-9.6997
C	-1.1525	7.8559	-9.3349
C	-1.0717	8.8726	-8.3601
C	0.2753	9.5046	-8.0516
N	1.0282	8.7494	-7.0510
C	0.1178	7.3191	-9.9581
C	-2.5319	6.3449	-10.8389
N	-2.5568	4.9659	-10.3586
C	-4.9128	7.1566	-9.3774
C	-4.7582	9.3882	-7.4706
N	-5.3034	8.8088	-6.2404
C	10.3131	0.2872	7.1750
C	10.5776	1.5427	6.3725
C	11.2877	1.4905	5.1575
C	11.4649	2.6580	4.3852
C	10.9875	3.8933	4.8681
C	10.2614	3.9513	6.0775
C	10.0936	2.7818	6.8433
C	9.4427	2.8619	8.2152
N	8.0292	2.4892	8.1942
C	9.6558	5.2606	6.5391
C	11.3061	5.1778	4.1228
N	10.3669	5.6915	3.1237
C	12.1531	2.5693	3.0403
C	11.9233	0.1864	4.7002
N	11.0746	-0.5539	3.7674
C	-8.7222	3.2772	8.6861
C	-8.9864	1.8088	8.4302
C	-9.9016	1.4041	7.4374
C	-10.0707	0.0328	7.1454
C	-9.3704	-0.9294	7.8983
C	-8.4567	-0.5328	8.8970
C	-8.2982	0.8362	9.1849
C	-7.4239	1.2801	10.3468
N	-6.0756	1.6397	9.9134
C	-7.6495	-1.5853	9.6263
C	-9.6307	-2.4096	7.6706
N	-8.6551	-3.0080	6.7615
C	-10.9870	-0.4009	6.0203
C	-10.7402	2.4456	6.7192
N	-10.2404	3.0496	5.4826
C	0.8835	-12.4077	-2.3946
C	0.7024	-11.8596	-3.7943
C	1.8289	-11.4409	-4.5335
C	1.6701	-10.8511	-5.8027
C	0.3786	-10.7376	-6.3589
C	-0.7520	-11.1495	-5.6278
C	-0.5826	-11.7519	-4.3618
C	-1.7810	-12.3568	-3.6513
N	-2.5874	-11.5442	-2.7389
C	-2.1433	-10.9418	-6.1893
C	0.2173	-10.2257	-7.7820
N	0.2090	-8.7666	-7.8518
C	2.8618	-10.3262	-6.5750
C	3.2211	-11.6890	-3.9752
N	3.6540	-10.6303	-3.0650
C	8.5130	6.7284	1.1830
C	7.6021	7.1527	0.2295
C	6.5092	6.3306	-0.1425
C	5.5939	6.7791	-1.1252
C	4.8336	7.2074	-1.9807
C	3.9797	7.7352	-2.9789
C	3.7509	9.1272	-3.0563
C	2.9368	9.6495	-4.0544
C	2.3369	8.8135	-5.0131
C	1.5236	9.4145	-6.0733
C	2.5541	7.4238	-4.9307
C	3.3541	6.8919	-3.9305
C	6.3628	5.0743	0.4857
C	7.2774	4.6616	1.4501
C	8.3668	5.4744	1.8093
C	9.3281	5.0052	2.8162
C	-9.2746	4.2650	3.0632
C	-8.7627	4.8004	1.8929
C	-7.5205	4.3529	1.3761
C	-7.0124	4.9049	0.1768
C	-6.6032	5.4009	-0.8630
C	-6.1398	5.9909	-2.0624
C	-4.9824	5.5078	-2.7136
C	-4.5369	6.1038	-3.8889
C	-5.2201	7.1955	-4.4546
C	-4.7156	7.8091	-5.6921
C	-6.3760	7.6762	-3.8072
C	-6.8296	7.0885	-2.6366
C	-6.8152	3.3528	2.0826
C	-7.3371	2.8244	3.2592
C	-8.5715	3.2666	3.7675
C	-9.1060	2.6858	5.0066
C	0.0504	-5.8662	-8.1190
C	-0.0835	-4.5008	-8.3234
C	-1.1890	-3.9830	-9.0408
C	-1.3042	-2.5897	-9.2863
C	-1.3910	-1.3955	-9.5282
C	-1.4766	-0.0142	-9.8467
C	-0.6408	0.5380	-10.8413
C	-0.7303	1.8878	-11.1635
C	-1.6482	2.7283	-10.5093
C	-1.7251	4.1443	-10.8837
C	-2.4784	2.1799	-9.5129
C	-2.3975	0.8340	-9.1864
C	-2.1611	-4.8818	-9.5296
C	-2.0157	-6.2496	-9.3246
C	-0.9104	-6.7634	-8.6239
C	-0.7791	-8.2141	-8.4535
C	4.9242	4.0191	9.4115
C	3.5585	3.7966	9.5538
C	2.9837	2.5920	9.0945
C	1.5990	2.3361	9.2705
C	0.4127	2.1090	9.4511
C	-0.9598	1.8391	9.6902
C	-1.9699	2.4819	8.9347
C	-3.3104	2.2317	9.1893
C	-3.6912	1.3339	10.2052
C	-5.0989	1.0672	10.5144
C	-2.6886	0.6866	10.9485
C	-1.3424	0.9297	10.6994
C	3.8204	1.6339	8.4724
C	5.1800	1.8675	8.3301
C	5.7562	3.0617	8.8051
C	7.1974	3.3185	8.7074
C	9.8257	-3.9990	3.5940
C	9.1019	-4.8814	2.7987
C	8.5414	-4.4445	1.5789
C	7.8367	-5.3505	0.7421
C	7.2584	-6.1450	0.0161
C	6.6152	-7.0909	-0.8253
C	7.2507	-7.5529	-1.9984
C	6.6358	-8.5109	-2.7977
C	5.3753	-9.0353	-2.4612
C	4.7843	-10.0770	-3.3079
C	4.7300	-8.5588	-1.3038
C	5.3376	-7.6065	-0.4983
C	8.7152	-3.0908	1.2006
C	9.4364	-2.2175	2.0021
C	10.0134	-2.6602	3.2082
C	10.8184	-1.7759	4.0578
C	-2.5252	-8.2405	-1.1585
C	-3.2366	-7.4368	-0.2726
C	-4.4620	-7.8837	0.2682
C	-5.2037	-7.0897	1.1756
C	-5.8710	-6.4451	1.9711
C	-6.6656	-5.7315	2.9007
C	-8.0689	-5.8964	2.9130
C	-8.8477	-5.2165	3.8424
C	-8.2603	-4.3653	4.7956
C	-9.1135	-3.6931	5.7795
C	-6.8619	-4.1927	4.7804
C	-6.0785	-4.8567	3.8482
C	-4.9456	-9.1599	-0.1137
C	-4.2264	-9.9556	-0.9904
C	-3.0014	-9.5112	-1.5270
C	-2.2237	-10.3487	-2.4521
H	-1.2211	10.2087	-6.0007
H	-2.0830	11.3909	-7.0004
H	-2.9747	10.3106	-5.9133
H	0.8812	9.5112	-8.9717
H	0.1479	10.5640	-7.7604
H	-0.0042	6.2863	-10.3007
H	0.9369	7.3170	-9.2289
H	0.4396	7.9188	-10.8258
H	-3.4841	6.5209	-11.3638
H	-1.7318	6.5120	-11.5840
H	-5.6222	7.2427	-8.5464
H	-5.3826	7.6203	-10.2610
H	-4.7914	6.0869	-9.5877
H	-4.6228	10.4626	-7.2677
H	-5.5746	9.3600	-8.2097
H	11.0979	0.1051	7.9281
H	9.3527	0.3564	7.6992
H	10.2622	-0.5991	6.5339
H	9.5999	3.8636	8.6564
H	9.9502	2.1489	8.8849
H	10.2964	5.7819	7.2689
H	8.6814	5.0991	7.0159
H	9.4857	5.9455	5.7008
H	11.4661	5.9965	4.8422
H	12.2763	5.0838	3.6091
H	13.2512	2.6069	3.1351
H	11.8537	3.3876	2.3753
H	11.8952	1.6310	2.5339
H	12.8587	0.4183	4.1671
H	12.2096	-0.4270	5.5750
H	-7.6689	3.4426	8.9433
H	-8.9387	3.8892	7.8031
H	-9.3350	3.6677	9.5159
H	-7.4136	0.5084	11.1391
H	-7.8694	2.1804	10.7987
H	-8.1962	-2.0034	10.4879
H	-7.3980	-2.4141	8.9538
H	-6.7037	-1.1820	10.0025
H	-10.6700	-2.5711	7.3284
H	-9.5395	-2.9361	8.6340
H	-11.1174	0.3913	5.2745
H	-11.9887	-0.6804	6.3855
H	-10.5790	-1.2688	5.4883
H	-10.9615	3.2826	7.4003
H	-11.7324	2.0317	6.4785
H	-0.0220	-12.2835	-1.7897
H	1.1309	-13.4825	-2.4001
H	1.6946	-11.8825	-1.8752
H	-2.4827	-12.7691	-4.3934
H	-1.4637	-13.2386	-3.0713
H	-2.2118	-9.9933	-6.7358
H	-2.4356	-11.7444	-6.8862
H	-2.8980	-10.9028	-5.3958
H	1.0771	-10.5714	-8.3780
H	-0.6814	-10.6682	-8.2501
H	3.6699	-10.0100	-5.9069
H	3.2767	-11.0855	-7.2588
H	2.5818	-9.4510	-7.1731
H	3.2050	-12.6239	-3.3929
H	3.9427	-11.8487	-4.7978
H	9.3594	7.3535	1.4676
H	7.7172	8.1241	-0.2517
H	4.2229	9.7838	-2.3259
H	2.7693	10.7277	-4.1044
H	1.3753	10.5113	-5.9892
H	2.0816	6.7788	-5.6719
H	3.5211	5.8162	-3.8721
H	5.5248	4.4351	0.2085
H	7.1531	3.6899	1.9329
H	9.1040	4.0294	3.2856
H	-10.2302	4.6037	3.4638
H	-9.3100	5.5729	1.3524
H	-4.4433	4.6639	-2.2829
H	-3.6397	5.7223	-4.3818
H	-3.7992	7.3577	-6.1161
H	-6.9027	8.5223	-4.2493
H	-7.7240	7.4661	-2.1404
H	-5.8598	3.0009	1.6938
H	-6.7841	2.0507	3.7965
H	-8.4755	1.9214	5.4977
H	0.9008	-6.2695	-7.5689
H	0.6651	-3.8091	-7.9368
H	0.0712	-0.1076	-11.3552
H	-0.0799	2.3025	-11.9369
H	-1.0108	4.4669	-11.6697
H	-3.1855	2.8368	-9.0058
H	-3.0444	0.4136	-8.4161
H	-3.0178	-4.4918	-10.0788
H	-2.7684	-6.9371	-9.7170
H	-1.5970	-8.8193	-8.8968
H	5.3599	4.9502	9.7812
H	2.9225	4.5422	10.0303
H	-1.6788	3.1806	8.1501
H	-4.0919	2.7259	8.6118
H	-5.2729	0.3304	11.3260
H	-2.9738	-0.0152	11.7356
H	-0.5712	0.4275	11.2833
H	3.3796	0.7047	8.1108
H	5.8274	1.1306	7.8542
H	7.5351	4.2862	9.1335
H	10.2632	-4.3528	4.5302
H	8.9704	-5.9198	3.1024
H	8.2320	-7.1588	-2.2624
H	7.1432	-8.8704	-3.6958
H	5.4001	-10.3813	-4.1797
H	3.7498	-8.9631	-1.0503
H	4.8387	-7.2470	0.4020
H	8.2771	-2.7443	0.2642
H	9.5760	-1.1764	1.7093
H	11.2179	-2.2459	4.9805
H	-1.5797	-7.8833	-1.5723
H	-2.8564	-6.4554	0.0104
H	-8.5311	-6.5630	2.1852
H	-9.9314	-5.3529	3.8415
H	-10.2052	-3.8283	5.6302
H	-6.4118	-3.5269	5.5171
H	-4.9969	-4.7202	3.8402
H	-5.8927	-9.5087	0.2983
H	-4.5908	-10.9411	-1.2802
H	-1.3108	-9.8897	-2.8760
