102

C	-4.7005	-0.9094	2.7898
C	-4.7568	-0.4417	1.3501
C	-4.7828	0.9370	1.0534
C	-4.7538	1.3763	-0.2870
C	-4.7715	0.4305	-1.3333
C	-4.7479	-0.9499	-1.0428
C	-4.7769	-1.3823	0.2993
C	-4.8554	-2.8635	0.6128
N	-3.6135	-3.6236	0.7678
C	-4.6868	-1.9633	-2.1665
C	-4.8475	0.8982	-2.7737
N	-3.6059	1.1429	-3.5116
C	-4.6985	2.8574	-0.6010
C	-4.8656	1.9507	2.1781
N	-3.6251	2.4704	2.7585
C	4.6850	-0.9459	2.7722
C	4.7481	-0.4665	1.3372
C	4.7695	0.9151	1.0516
C	4.7502	1.3638	-0.2856
C	4.7802	0.4259	-1.3387
C	4.7560	-0.9566	-1.0596
C	4.7784	-1.3989	0.2794
C	4.8656	-2.8827	0.5826
N	3.6283	-3.6514	0.7359
C	4.6961	-1.9607	-2.1913
C	4.8711	0.9063	-2.7743
N	3.6361	1.1668	-3.5182
C	4.6890	2.8461	-0.5921
C	4.8505	1.9201	2.1850
N	3.6126	2.4454	2.7670
C	-1.2183	-5.1559	1.0684
C	-0.0043	-5.8257	1.1946
Br	-0.0117	-7.7048	1.5746
C	1.2151	-5.1693	1.0527
C	1.2251	-3.7915	0.7746
C	2.4965	-3.0651	0.6191
C	0.0076	-3.1062	0.6465
C	-1.2153	-3.7774	0.7906
C	-2.4816	-3.0393	0.6458
C	1.2243	1.6811	-4.9892
C	0.0037	1.8989	-5.6230
Br	-0.0070	2.5336	-7.4319
C	-1.2093	1.6704	-4.9793
C	-1.2064	1.2070	-3.6521
C	-2.4739	0.9617	-2.9429
C	0.0171	0.9844	-3.0040
C	1.2339	1.2165	-3.6626
C	2.5025	0.9725	-2.9571
C	1.2130	3.5017	3.9180
C	-0.0028	3.9524	4.4255
Br	0.0020	5.2255	5.8588
C	-1.2208	3.5061	3.9202
C	-1.2255	2.5756	2.8664
C	-2.4937	2.0788	2.3074
C	-0.0071	2.1135	2.3487
C	1.2141	2.5684	2.8668
C	2.4801	2.0644	2.3094
H	-5.7080	-1.0492	3.2147
H	-4.1746	-0.1892	3.4276
H	-4.1702	-1.8642	2.8848
H	-5.4378	-3.3866	-0.1619
H	-5.4318	-3.0285	1.5365
H	-5.6932	-2.2653	-2.4997
H	-4.1574	-2.8738	-1.8619
H	-4.1586	-1.5668	-3.0416
H	-5.4296	1.8308	-2.8403
H	-5.4246	0.1808	-3.3777
H	-5.7064	3.2947	-0.6892
H	-4.1745	3.0518	-1.5442
H	-4.1671	3.4166	0.1782
H	-5.4443	2.8307	1.8565
H	-5.4473	1.5414	3.0187
H	4.1574	-1.9033	2.8558
H	5.6904	-1.0869	3.2017
H	4.1532	-0.2332	3.4136
H	5.4432	-3.0491	1.5055
H	5.4515	-3.3971	-0.1952
H	5.7022	-2.2569	-2.5307
H	4.1638	-1.5577	-3.0611
H	4.1700	-2.8751	-1.8927
H	5.4461	0.1890	-3.3807
H	5.4613	1.8347	-2.8282
H	4.1683	3.4015	0.1967
H	5.6950	3.2852	-0.6936
H	4.1514	3.0428	-1.5273
H	5.4364	2.7988	1.8723
H	5.4274	1.5006	3.0240
H	-2.1720	-5.6700	1.1773
H	2.1642	-5.6941	1.1522
H	2.4085	-1.9837	0.3998
H	0.0123	-2.0342	0.4316
H	-2.3897	-1.9588	0.4239
H	2.1730	1.8602	-5.4931
H	-2.1635	1.8411	-5.4753
H	-2.3829	0.6160	-1.8952
H	0.0234	0.6248	-1.9715
H	2.4110	0.6114	-1.9148
H	2.1655	3.8512	4.3136
H	-2.1715	3.8588	4.3172
H	-2.4034	1.3486	1.4806
H	-0.0094	1.3882	1.5304
H	2.3879	1.3394	1.4779
