268

C	-5.2957	3.1138	-7.4934
C	-3.9276	3.7327	-7.6916
C	-3.6480	4.9955	-7.1238
C	-2.3576	5.5500	-7.2183
C	-1.3572	4.8674	-7.9459
C	-1.6250	3.6085	-8.5147
C	-2.9235	3.0614	-8.4130
C	-3.2253	1.7351	-9.0967
N	-2.7808	0.6151	-8.2728
C	-0.5401	2.8138	-9.2099
C	0.0159	5.5068	-8.1063
N	0.8413	5.2640	-6.9264
C	-2.0135	6.8529	-6.5283
C	-4.7603	5.7490	-6.4051
N	-4.9133	5.2558	-5.0392
C	4.9484	-8.2626	-0.6847
C	5.8354	-7.2278	-1.3443
C	6.7848	-6.5032	-0.6006
C	7.5438	-5.4796	-1.2096
C	7.3939	-5.2327	-2.5867
C	6.4392	-5.9496	-3.3426
C	5.6891	-6.9672	-2.7251
C	4.7082	-7.8004	-3.5380
N	3.3471	-7.2904	-3.3937
C	6.2238	-5.5914	-4.7985
C	8.2577	-4.1885	-3.2800
N	7.5305	-2.9306	-3.4179
C	8.4862	-4.6528	-0.3596
C	7.0011	-6.8071	0.8743
N	6.2420	-5.8773	1.7067
C	-8.9605	-3.1366	1.6941
C	-8.1363	-3.7583	2.8025
C	-7.5385	-5.0214	2.5976
C	-6.6860	-5.5755	3.5700
C	-6.4813	-4.8878	4.7871
C	-7.0734	-3.6303	5.0034
C	-7.9308	-3.0862	4.0209
C	-8.6242	-1.7595	4.2941
N	-7.7282	-0.6424	4.0104
C	-6.7854	-2.8345	6.2590
C	-5.6104	-5.5235	5.8620
N	-4.1952	-5.2849	5.5924
C	-5.9623	-6.8828	3.3252
C	-7.8206	-5.7717	1.3045
N	-6.9656	-5.2754	0.2306
C	5.7926	4.7024	6.1353
C	4.5222	5.5244	6.0823
C	4.4008	6.5507	5.1191
C	3.1981	7.2703	4.9909
C	2.1353	7.0124	5.8852
C	2.2432	5.9893	6.8451
C	3.4526	5.2680	6.9598
C	3.5843	4.2128	8.0489
N	2.9783	2.9520	7.6265
C	1.0775	5.6280	7.7413
C	0.8700	7.8563	5.8013
N	-0.0176	7.3539	4.7578
C	3.0134	8.2965	3.8929
C	5.5891	6.8676	4.2204
N	5.6528	5.9318	3.1014
C	-5.1133	-4.3777	-1.8111
C	-4.2059	-4.0199	-2.7967
C	-3.4515	-5.0062	-3.4648
C	-3.6333	-6.3562	-3.1197
C	-4.5388	-6.7051	-2.1218
C	-5.2959	-5.7281	-1.4527
C	-6.2279	-6.1188	-0.3920
N	-2.4991	-4.6412	-4.4509
C	-2.7741	-3.5755	-5.3443
C	-1.7685	-2.6425	-5.6737
C	-2.0429	-1.5833	-6.5244
C	-3.3287	-1.4097	-7.0740
C	-3.6456	-0.2716	-7.9405
C	-4.3251	-2.3454	-6.7449
C	-4.0569	-3.4182	-5.8989
C	-1.2195	-5.2540	-4.4497
C	-0.5738	-5.5574	-5.6604
C	0.7004	-6.1170	-5.6496
C	1.3586	-6.4058	-4.4415
C	2.7101	-6.9706	-4.4595
C	0.6974	-6.1133	-3.2323
C	-0.5672	-5.5442	-3.2333
C	2.5062	4.5828	-4.6418
C	3.3495	4.2228	-3.6014
C	4.5907	3.6071	-3.8669
C	4.9627	3.3741	-5.2025
C	4.1047	3.7287	-6.2395
C	2.8646	4.3389	-5.9824
C	1.9718	4.6821	-7.0919
N	5.4399	3.2039	-2.8042
C	5.5247	3.9949	-1.6291
C	5.6192	5.3941	-1.7196
C	5.6586	6.1668	-0.5620
C	5.6240	5.5727	0.7114
C	5.6381	6.4122	1.9129
C	5.5417	4.1683	0.7921
C	5.4889	3.3914	-0.3549
C	6.0955	1.9472	-2.8571
C	5.4541	0.8284	-3.4289
C	6.0854	-0.4055	-3.4600
C	7.3735	-0.5728	-2.9136
C	8.0401	-1.8770	-2.8952
C	8.0060	0.5461	-2.3441
C	7.3854	1.7922	-2.3195
C	-7.7914	2.3291	1.8564
C	-7.0148	3.4016	1.4284
C	-5.6976	3.5483	1.8964
C	-5.1868	2.6046	2.8117
C	-5.9720	1.5458	3.2413
C	-7.2897	1.3843	2.7685
C	-8.1206	0.2484	3.1759
N	-4.8868	4.6185	1.4401
C	-3.9840	5.2484	2.3344
C	-2.6779	5.5788	1.9169
C	-1.7857	6.1647	2.8006
C	-2.1591	6.4372	4.1314
C	-1.2100	7.0156	5.0854
C	-3.4631	6.1086	4.5400
C	-4.3696	5.5281	3.6569
C	-4.8953	4.9839	0.0690
C	-4.7846	6.3335	-0.3096
C	-4.7549	6.6800	-1.6579
C	-4.8535	5.7033	-2.6643
C	-4.7929	6.0936	-4.0760
C	-4.9756	4.3544	-2.2749
C	-4.9916	3.9979	-0.9347
C	-1.3699	-3.7699	7.3766
C	-0.0330	-3.4143	7.2257
C	0.6198	-3.6331	6.0006
C	-0.0910	-4.2353	4.9421
C	-1.4189	-4.5985	5.1056
C	-2.0862	-4.3668	6.3246
C	-3.4996	-4.7068	6.5008
N	1.9654	-3.2213	5.8258
C	2.3820	-1.9546	6.3102
C	1.5175	-0.8419	6.2429
C	1.9375	0.4037	6.6846
C	3.2356	0.5866	7.2014
C	3.7120	1.9003	7.6417
C	4.0899	-0.5282	7.2684
C	3.6731	-1.7849	6.8386
C	2.8456	-3.9987	5.0306
C	2.8411	-5.4011	5.1294
C	3.6771	-6.1595	4.3152
C	4.5473	-5.5490	3.3959
C	5.4029	-6.3728	2.5400
C	4.5543	-4.1427	3.3127
C	3.7181	-3.3787	4.1117
H	-6.0110	3.4367	-8.2682
H	-5.2545	2.0201	-7.5221
H	-5.7071	3.3902	-6.5157
H	-2.6680	1.6904	-10.0458
H	-4.2963	1.6648	-9.3610
H	-0.5320	2.9901	-10.2985
H	0.4555	3.0664	-8.8310
H	-0.6809	1.7396	-9.0421
H	-0.1084	6.5966	-8.2062
H	0.5013	5.1618	-9.0377
H	-2.1364	7.7204	-7.1982
H	-2.6439	7.0269	-5.6503
H	-0.9753	6.8417	-6.1763
H	-5.7101	5.5692	-6.9330
H	-4.5834	6.8394	-6.4423
H	3.9570	-8.2778	-1.1525
H	4.7936	-8.0484	0.3775
H	5.3744	-9.2772	-0.7571
H	5.0256	-7.8576	-4.5955
H	4.7173	-8.8333	-3.1556
H	6.3758	-4.5177	-4.9591
H	6.9133	-6.1370	-5.4643
H	5.2043	-5.8200	-5.1258
H	9.2211	-4.0634	-2.7528
H	8.5017	-4.5448	-4.2934
H	8.6507	-3.6572	-0.7838
H	8.0711	-4.5059	0.6445
H	9.4735	-5.1322	-0.2528
H	8.0676	-6.6740	1.1142
H	6.7612	-7.8629	1.0970
H	-8.5499	-3.4023	0.7129
H	-10.0118	-3.4682	1.7243
H	-8.9607	-2.0434	1.7528
H	-8.8887	-1.7103	5.3622
H	-9.5749	-1.6903	3.7343
H	-7.5402	-3.0117	7.0432
H	-5.8079	-3.0850	6.6837
H	-6.7703	-1.7604	6.0401
H	-5.7709	-6.6131	5.8509
H	-5.9116	-5.1750	6.8669
H	-6.5206	-7.7452	3.7258
H	-5.8014	-7.0650	2.2575
H	-4.9728	-6.8709	3.7971
H	-7.7240	-6.8629	1.4513
H	-8.8658	-5.5897	1.0077
H	5.6115	3.6992	6.5348
H	6.2117	4.5727	5.1305
H	6.5632	5.1742	6.7675
H	3.0431	4.5566	8.9444
H	4.6404	4.0908	8.3517
H	1.1209	6.1556	8.7088
H	1.0653	4.5505	7.9434
H	0.1169	5.8742	7.2776
H	0.3727	7.9134	6.7871
H	1.1487	8.8876	5.5334
H	3.2741	9.3140	4.2287
H	1.9728	8.3100	3.5481
H	3.6344	8.0714	3.0196
H	5.5580	7.9211	3.8868
H	6.5161	6.7532	4.8041
H	-5.6831	-3.6176	-1.2762
H	-4.0569	-2.9707	-3.0520
H	-3.0530	-7.1232	-3.6326
H	-4.6694	-7.7577	-1.8604
H	-6.2504	-7.2019	-0.1489
H	-0.7756	-2.7517	-5.2379
H	-1.2744	-0.8472	-6.7611
H	-4.6992	-0.2136	-8.2862
H	-5.3271	-2.2328	-7.1651
H	-4.8390	-4.1365	-5.6539
H	-1.0739	-5.3392	-6.6039
H	1.1950	-6.3423	-6.5973
H	3.1602	-7.1000	-5.4662
H	1.2153	-6.3174	-2.2949
H	-1.0607	-5.3004	-2.2924
H	1.5364	5.0376	-4.4387
H	3.0506	4.3971	-2.5678
H	5.9221	2.9037	-5.4172
H	4.4050	3.5371	-7.2723
H	2.3346	4.3955	-8.1014
H	5.6491	5.8667	-2.7014
H	5.7260	7.2539	-0.6456
H	5.6197	7.5071	1.7294
H	5.4906	3.7076	1.7790
H	5.4026	2.3073	-0.2810
H	4.4483	0.9393	-3.8335
H	5.5829	-1.2769	-3.8806
H	9.0244	-1.9014	-2.3820
H	9.0064	0.4382	-1.9185
H	7.8893	2.6514	-1.8771
H	-8.8121	2.2234	1.4818
H	-7.4173	4.1285	0.7230
H	-4.1618	2.7076	3.1675
H	-5.5731	0.8012	3.9305
H	-9.1222	0.1961	2.6994
H	-2.3711	5.3524	0.8959
H	-0.7673	6.3992	2.4899
H	-1.5838	7.1316	6.1243
H	-3.7727	6.3166	5.5667
H	-5.3783	5.2788	3.9857
H	-4.7119	7.1022	0.4595
H	-4.6631	7.7319	-1.9382
H	-4.6190	7.1739	-4.2644
H	-5.0277	3.5927	-3.0533
H	-5.0639	2.9491	-0.6467
H	-1.8690	-3.5891	8.3314
H	0.5127	-2.9527	8.0485
H	0.4090	-4.3961	3.9870
H	-1.9803	-5.0424	4.2832
H	-3.9421	-4.4209	7.4781
H	0.5190	-0.9673	5.8244
H	1.2800	1.2704	6.6135
H	4.7667	1.9334	7.9869
H	5.0977	-0.4076	7.6724
H	4.3457	-2.6405	6.8972
H	2.1721	-5.8865	5.8399
H	3.6620	-7.2487	4.3981
H	5.2748	-7.4699	2.6521
H	5.2142	-3.6696	2.5851
H	3.7164	-2.2924	4.0234
