300

C	4.0952	-4.2779	9.5651
C	4.8098	-5.1502	8.5551
C	6.0684	-4.7896	8.0392
C	6.6805	-5.5715	7.0342
C	6.0476	-6.7464	6.5819
C	4.7786	-7.1105	7.0885
C	4.1868	-6.3339	8.1018
C	2.8520	-6.7479	8.7043
N	1.7635	-6.0107	8.0691
C	4.0511	-8.3108	6.5175
C	6.6951	-7.6185	5.5225
N	6.3613	-7.3568	4.1128
C	7.9907	-5.1105	6.4307
C	6.7775	-3.5431	8.5488
N	6.5035	-2.4000	7.6801
C	-4.2229	-5.5933	-8.8397
C	-4.9443	-6.2789	-7.6996
C	-6.1962	-5.8224	-7.2444
C	-6.8151	-6.4277	-6.1282
C	-6.1940	-7.5223	-5.4940
C	-4.9295	-7.9753	-5.9356
C	-4.3333	-7.3811	-7.0632
C	-3.0099	-7.9138	-7.5960
N	-1.9001	-7.1183	-7.0795
C	-4.2084	-9.0726	-5.1807
C	-6.8618	-8.2180	-4.3213
N	-6.5538	-7.7495	-2.9610
C	-8.1217	-5.8662	-5.6076
C	-6.8928	-4.6611	-7.9403
N	-6.5987	-3.4051	-7.2522
C	5.9285	4.4349	-8.1554
C	6.5725	5.0882	-6.9499
C	7.7021	4.4936	-6.3431
C	8.2479	5.0475	-5.1683
C	7.6949	6.2306	-4.6315
C	6.5720	6.8310	-5.2314
C	6.0403	6.2764	-6.4161
C	4.8890	6.9789	-7.1214
N	3.6020	6.6001	-6.5414
C	5.9076	8.0437	-4.6145
C	8.3163	6.8396	-3.3840
N	7.7856	6.1906	-2.1882
C	9.3979	4.3742	-4.4502
C	8.2975	3.2421	-6.9597
N	7.7535	1.9392	-6.5474
C	-5.8156	5.6876	7.3643
C	-6.4406	6.1921	6.0800
C	-7.5889	5.5563	5.5553
C	-8.1076	5.9540	4.3072
C	-7.5106	7.0289	3.6112
C	-6.3777	7.6781	4.1364
C	-5.8701	7.2782	5.3920
C	-4.7031	8.0378	6.0044
N	-3.4239	7.5577	5.4861
C	-5.6743	8.7777	3.3703
C	-8.1021	7.4654	2.2793
N	-7.5949	6.6255	1.1953
C	-9.2754	5.2224	3.6809
C	-8.2346	4.4365	6.3505
N	-7.7282	3.0680	6.1615
C	6.4589	-0.5629	-5.7495
C	5.8968	-1.7274	-5.2385
C	5.3378	-1.7569	-3.9444
C	5.3521	-0.5747	-3.1839
C	5.8897	0.5996	-3.7059
C	6.4586	0.6221	-4.9903
C	7.0246	1.8809	-5.4941
C	4.7375	-2.9974	-3.3988
C	5.0353	-3.4191	-2.0934
C	4.4950	-4.6058	-1.5734
C	3.6185	-5.3575	-2.3710
C	3.2702	-4.9389	-3.6663
C	3.8577	-3.7677	-4.1748
C	2.2392	-5.6704	-4.4399
C	1.2902	-4.9606	-5.2068
C	0.2653	-5.6167	-5.8743
C	0.1481	-7.0170	-5.8027
C	-0.9727	-7.7236	-6.4339
C	1.1047	-7.7332	-5.0629
C	2.1324	-7.0722	-4.3915
C	4.8263	-5.0426	-0.1984
C	4.8011	-4.1274	0.8677
C	5.0961	-4.5394	2.1646
C	5.4591	-5.8696	2.4334
C	5.7969	-6.2450	3.8132
C	5.4902	-6.7888	1.3684
C	5.1671	-6.3827	0.0783
C	-0.3761	-4.6599	6.6324
C	-1.4027	-4.1009	5.8833
C	-2.3787	-4.9081	5.2597
C	-2.2978	-6.3004	5.4372
C	-1.2689	-6.8629	6.1898
C	-0.2874	-6.0556	6.7897
C	0.8203	-6.6820	7.5202
C	-3.4149	-4.2941	4.3989
C	-3.9815	-3.0514	4.7293
C	-4.8654	-2.3998	3.8565
C	-5.1860	-3.0148	2.6362
C	-4.6619	-4.2709	2.2951
C	-3.7855	-4.9045	3.1888
C	-4.9983	-4.8911	0.9930
C	-4.9287	-4.1369	-0.1914
C	-5.2241	-4.7182	-1.4220
C	-5.6296	-6.0606	-1.5044
C	-5.9591	-6.6221	-2.8210
C	-5.7069	-6.8172	-0.3205
C	-5.3842	-6.2435	0.9042
C	-5.4336	-1.0746	4.1972
C	-5.4310	-0.0374	3.2481
C	-5.9363	1.2206	3.5670
C	-6.4896	1.4745	4.8333
C	-7.0191	2.8139	5.1232
C	-6.5074	0.4347	5.7816
C	-5.9763	-0.8127	5.4717
C	5.9934	7.2879	0.8145
C	5.3435	6.8129	1.9510
C	5.2924	5.4347	2.2249
C	5.9307	4.5528	1.3275
C	6.5737	5.0246	0.1908
C	6.6082	6.4037	-0.0869
C	7.2350	6.9336	-1.3020
C	4.5607	4.9177	3.4030
C	5.0551	3.8336	4.1466
C	4.3552	3.3337	5.2570
C	3.1416	3.9411	5.6176
C	2.6193	5.0212	4.8896
C	3.3418	5.4996	3.7862
C	1.3081	5.6043	5.2535
C	0.3834	5.9900	4.2602
C	-0.8598	6.5075	4.5989
C	-1.2268	6.6608	5.9490
C	-2.5415	7.1837	6.3367
C	-0.3072	6.2851	6.9420
C	0.9394	5.7665	6.6006
C	4.8507	2.1635	6.0171
C	4.7042	2.0940	7.4139
C	5.1074	0.9618	8.1184
C	5.6673	-0.1411	7.4520
C	6.0250	-1.3407	8.2181
C	5.8366	-0.0683	6.0564
C	5.4399	1.0645	5.3567
C	1.0222	5.7187	-5.5176
C	-0.2282	5.2682	-5.1149
C	-1.1547	4.7520	-6.0460
C	-0.7804	4.7125	-7.4006
C	0.4718	5.1688	-7.8068
C	1.3927	5.6754	-6.8748
C	2.7129	6.1233	-7.3312
C	-2.4756	4.2493	-5.6051
C	-3.0130	3.0770	-6.1592
C	-4.2415	2.5581	-5.7194
C	-4.9389	3.2411	-4.7084
C	-4.4290	4.4199	-4.1392
C	-3.1965	4.9108	-4.5992
C	-5.1549	5.1309	-3.0616
C	-5.8106	4.4170	-2.0366
C	-6.4350	5.0764	-0.9855
C	-6.4332	6.4826	-0.9223
C	-7.0330	7.2094	0.2028
C	-5.8048	7.1994	-1.9547
C	-5.1767	6.5359	-3.0062
C	-4.7616	1.2949	-6.2920
C	-4.6105	1.0021	-7.6592
C	-5.0557	-0.2099	-8.1826
C	-5.6660	-1.1719	-7.3602
C	-6.0721	-2.4595	-7.9374
C	-5.8338	-0.8773	-5.9942
C	-5.3909	0.3323	-5.4742
H	3.0132	-4.2904	9.3880
H	4.2742	-4.6164	10.5992
H	4.4158	-3.2333	9.5030
H	2.8476	-6.4930	9.7758
H	2.7137	-7.8427	8.6414
H	4.2402	-9.2263	7.1014
H	4.3511	-8.5098	5.4828
H	2.9673	-8.1503	6.5024
H	7.7931	-7.5687	5.5961
H	6.4605	-8.6768	5.7077
H	8.1716	-5.5578	5.4473
H	7.9905	-4.0217	6.2945
H	8.8501	-5.3663	7.0722
H	6.5122	-3.3424	9.6030
H	7.8647	-3.7164	8.5299
H	-4.4097	-6.0940	-9.8043
H	-4.5295	-4.5486	-8.9498
H	-3.1404	-5.5910	-8.6649
H	-2.9001	-8.9899	-7.3678
H	-3.0032	-7.8241	-8.6936
H	-4.5292	-9.1219	-4.1344
H	-3.1263	-8.9000	-5.1674
H	-4.3780	-10.0653	-5.6286
H	-6.6306	-9.2933	-4.3390
H	-7.9581	-8.1781	-4.4228
H	-8.3065	-6.1507	-4.5661
H	-8.9827	-6.2133	-6.2024
H	-8.1121	-4.7696	-5.6453
H	-7.9816	-4.8164	-7.8955
H	-6.6251	-4.6258	-9.0122
H	6.3306	4.8280	-9.1034
H	4.8450	4.5957	-8.1666
H	6.0826	3.3499	-8.1556
H	4.9288	6.7904	-8.2102
H	5.0016	8.0665	-6.9905
H	6.0555	8.0809	-3.5305
H	6.2993	8.9858	-5.0326
H	4.8249	8.0219	-4.7863
H	9.4033	6.6666	-3.4019
H	8.1734	7.9357	-3.3666
H	10.3612	4.8635	-4.6698
H	9.4960	3.3191	-4.7277
H	9.2475	4.4095	-3.3639
H	8.2118	3.2822	-8.0554
H	9.3829	3.1984	-6.7762
H	-6.1939	6.2253	8.2491
H	-4.7263	5.8042	7.3503
H	-6.0139	4.6206	7.5165
H	-4.7889	9.1013	5.7308
H	-4.7494	7.9959	7.1083
H	-5.8231	8.6814	2.2899
H	-6.0332	9.7782	3.6636
H	-4.5927	8.7419	3.5466
H	-7.9189	8.5404	2.0986
H	-9.1951	7.3372	2.3126
H	-10.2210	5.7749	3.8079
H	-9.4180	4.2262	4.1137
H	-9.1126	5.0870	2.6042
H	-9.3186	4.3982	6.1566
H	-8.1607	4.6496	7.4269
H	6.9086	-0.5449	-6.7426
H	5.9068	-2.6421	-5.8338
H	4.9035	-0.5730	-2.1892
H	5.8687	1.5182	-3.1149
H	6.7818	2.7778	-4.8948
H	5.7407	-2.8434	-1.4923
H	3.1412	-6.2410	-1.9451
H	3.6119	-3.4364	-5.1847
H	1.3371	-3.8711	-5.2363
H	-0.4842	-5.0598	-6.4370
H	-0.9838	-8.8250	-6.2960
H	1.0351	-8.8221	-5.0075
H	2.8681	-7.6488	-3.8291
H	4.5126	-3.0925	0.6776
H	5.0478	-3.8227	2.9877
H	5.5399	-5.4906	4.5795
H	5.7772	-7.8196	1.5781
H	5.2036	-7.1013	-0.7424
H	0.3932	-4.0343	7.0858
H	-1.4316	-3.0207	5.7347
H	-3.0545	-6.9453	4.9881
H	-1.2191	-7.9474	6.3128
H	0.8035	-7.7916	7.5512
H	-3.7132	-2.5705	5.6711
H	-5.8898	-2.5279	1.9595
H	-3.3203	-5.8471	2.8970
H	-4.6066	-3.0956	-0.1436
H	-5.1419	-4.1276	-2.3373
H	-5.6645	-6.0000	-3.6861
H	-6.0273	-7.8572	-0.3873
H	-5.4532	-6.8368	1.8178
H	-4.9936	-0.2142	2.2643
H	-5.9008	2.0248	2.8284
H	-6.7643	3.5910	4.3792
H	-6.9438	0.6311	6.7613
H	-5.9985	-1.6123	6.2142
H	6.0248	8.3619	0.6174
H	4.8852	7.5171	2.6465
H	5.8828	3.4785	1.5121
H	7.0439	4.3396	-0.5152
H	7.1867	8.0365	-1.4186
H	6.0204	3.3994	3.8829
H	2.5579	3.5186	6.4361
H	2.9421	6.3324	3.2064
H	0.6380	5.8450	3.2093
H	-1.5808	6.7852	3.8296
H	-2.7312	7.2338	7.4293
H	-0.5738	6.4073	7.9944
H	1.6476	5.5004	7.3867
H	4.2819	2.9435	7.9525
H	4.9835	0.9263	9.2032
H	5.8389	-1.2782	9.3108
H	6.2641	-0.9274	5.5388
H	5.5438	1.0894	4.2709
H	1.7438	6.0963	-4.7928
H	-0.4883	5.2792	-4.0553
H	-1.4881	4.3410	-8.1431
H	0.7427	5.1361	-8.8646
H	2.9011	6.0174	-8.4201
H	-2.4322	2.5211	-6.8960
H	-5.9147	2.8723	-4.3896
H	-2.7836	5.8175	-4.1555
H	-5.7893	3.3261	-2.0500
H	-6.9161	4.5203	-0.1804
H	-6.9528	8.3153	0.1500
H	-5.8076	8.2915	-1.9282
H	-4.7062	7.1124	-3.8039
H	-4.1547	1.7407	-8.3200
H	-4.9290	-0.4185	-9.2475
H	-5.8730	-2.5728	-9.0237
H	-6.2969	-1.6279	-5.3531
H	-5.4967	0.5289	-4.4062
