300

C	4.0596	-2.6039	10.1638
C	4.7508	-3.6559	9.3227
C	6.0136	-3.4186	8.7489
C	6.6042	-4.3785	7.8970
C	5.9451	-5.6014	7.6608
C	4.6718	-5.8435	8.2261
C	4.1014	-4.8877	9.0871
C	2.7618	-5.1606	9.7557
N	1.6850	-4.5246	9.0020
C	3.9169	-7.1103	7.8778
C	6.5689	-6.6605	6.7713
N	6.2328	-6.6453	5.3381
C	7.9202	-4.0592	7.2192
C	6.7507	-2.1168	9.0287
N	6.4952	-1.1399	7.9719
C	-4.3840	-6.9786	-7.7032
C	-5.1129	-7.4365	-6.4584
C	-6.3527	-6.8806	-6.0890
C	-6.9777	-7.2658	-4.8823
C	-6.3756	-8.2437	-4.0655
C	-5.1230	-8.7941	-4.4222
C	-4.5209	-8.4213	-5.6383
C	-3.2116	-9.0675	-6.0707
N	-2.0830	-8.2167	-5.7051
C	-4.4201	-9.7555	-3.4864
C	-7.0509	-8.7069	-2.7871
N	-6.7260	-8.0118	-1.5316
C	-8.2697	-6.5938	-4.4669
C	-7.0293	-5.8462	-6.9781
N	-6.7061	-4.4948	-6.5236
C	5.9727	2.7975	-8.8219
C	6.6365	3.6400	-7.7522
C	7.7571	3.1386	-7.0518
C	8.3204	3.8799	-5.9944
C	7.7945	5.1506	-5.6744
C	6.6808	5.6589	-6.3691
C	6.1315	4.9148	-7.4360
C	4.9909	5.5054	-8.2524
N	3.6997	5.2623	-7.6123
C	6.0445	6.9752	-5.9753
C	8.4350	5.9574	-4.5555
N	7.8978	5.5414	-3.2628
C	9.4604	3.3203	-5.1706
C	8.3235	1.7856	-7.4383
N	7.7554	0.5877	-6.8010
C	-5.6585	7.0209	6.2522
C	-6.2801	7.3034	4.9001
C	-7.4440	6.6090	4.4981
C	-7.9613	6.7905	3.2003
C	-7.3464	7.7127	2.3241
C	-6.1977	8.4206	2.7241
C	-5.6915	8.2384	4.0297
C	-4.5059	9.0697	4.4960
N	-3.2395	8.4789	4.0686
C	-5.4762	9.3523	1.7743
C	-7.9361	7.9190	0.9370
N	-7.4520	6.8902	0.0178
C	-9.1471	5.9844	2.7155
C	-8.1080	5.6613	5.4801
N	-7.6305	4.2706	5.5352
C	6.4147	-1.7061	-5.5707
C	5.8318	-2.7498	-4.8608
C	5.2794	-2.5383	-3.5809
C	5.3219	-1.2408	-3.0415
C	5.8804	-0.1888	-3.7640
C	6.4426	-0.4058	-5.0332
C	7.0312	0.7319	-5.7527
C	4.6569	-3.6498	-2.8233
C	4.9532	-3.8403	-1.4644
C	4.3918	-4.9047	-0.7418
C	3.4958	-5.7671	-1.3922
C	3.1490	-5.5769	-2.7406
C	3.7575	-4.5267	-3.4493
C	2.0992	-6.4119	-3.3707
C	1.1606	-5.8291	-4.2493
C	0.1190	-6.5713	-4.7884
C	-0.0263	-7.9341	-4.4700
C	-1.1646	-8.7176	-4.9642
C	0.9197	-8.5281	-3.6169
C	1.9642	-7.7804	-3.0748
C	4.7217	-5.0983	0.6883
C	4.7209	-4.0087	1.5757
C	5.0145	-4.1909	2.9245
C	5.3518	-5.4599	3.4238
C	5.6895	-5.5924	4.8476
C	5.3585	-6.5534	2.5381
C	5.0367	-6.3751	1.1971
C	-0.4345	-3.4046	7.3528
C	-1.4536	-2.9656	6.5185
C	-2.4492	-3.8496	6.0493
C	-2.3956	-5.1900	6.4702
C	-1.3742	-5.6320	7.3086
C	-0.3734	-4.7521	7.7544
C	0.7254	-5.2625	8.5822
C	-3.4774	-3.3760	5.0953
C	-4.0168	-2.0828	5.2017
C	-4.8920	-1.5774	4.2288
C	-5.2317	-2.3916	3.1372
C	-4.7351	-3.6990	3.0228
C	-3.8669	-4.1828	4.0129
C	-5.0912	-4.5325	1.8515
C	-5.0128	-4.0013	0.5523
C	-5.3266	-4.7847	-0.5555
C	-5.7597	-6.1117	-0.3984
C	-6.1078	-6.8902	-1.5943
C	-5.8459	-6.6452	0.9008
C	-5.5049	-5.8709	2.0041
C	-5.4313	-0.2013	4.3308
C	-5.4128	0.6515	3.2131
C	-5.8907	1.9564	3.3053
C	-6.4318	2.4417	4.5077
C	-6.9324	3.8221	4.5571
C	-6.4655	1.5866	5.6251
C	-5.9616	0.2932	5.5398
C	6.1446	7.1898	-0.4984
C	5.4914	6.9370	0.7054
C	5.4138	5.6303	1.2189
C	6.0291	4.5904	0.4906
C	6.6754	4.8402	-0.7129
C	6.7364	6.1474	-1.2302
C	7.3672	6.4408	-2.5211
C	4.6782	5.3453	2.4712
C	5.1546	4.3996	3.3940
C	4.4507	4.1187	4.5765
C	3.2517	4.8056	4.8262
C	2.7474	5.7507	3.9194
C	3.4735	6.0112	2.7475
C	1.4504	6.4164	4.1767
C	0.5283	6.6396	3.1326
C	-0.7023	7.2348	3.3766
C	-1.0586	7.6321	4.6789
C	-2.3604	8.2427	4.9704
C	-0.1415	7.4187	5.7211
C	1.0925	6.8219	5.4747
C	4.9264	3.0913	5.5307
C	4.7862	3.2730	6.9181
C	5.1701	2.2750	7.8111
C	5.7039	1.0602	7.3493
C	6.0413	0.0077	8.3149
C	5.8670	0.8815	5.9625
C	5.4895	1.8807	5.0742
C	1.1080	4.6301	-6.4441
C	-0.1490	4.2842	-5.9658
C	-1.0909	3.6310	-6.7892
C	-0.7249	3.3448	-8.1162
C	0.5341	3.6957	-8.5989
C	1.4701	4.3397	-7.7729
C	2.7967	4.6721	-8.3037
C	-2.4193	3.2421	-6.2640
C	-2.9835	2.0018	-6.6011
C	-4.2198	1.5947	-6.0742
C	-4.8976	2.4602	-5.1988
C	-4.3608	3.7101	-4.8480
C	-3.1211	4.0860	-5.3897
C	-5.0662	4.6155	-3.9119
C	-5.7306	4.1081	-2.7756
C	-6.3358	4.9559	-1.8566
C	-6.3050	6.3508	-2.0432
C	-6.8839	7.2775	-1.0633
C	-5.6678	6.8604	-3.1872
C	-5.0591	6.0084	-4.1059
C	-4.7686	0.2614	-6.4134
C	-4.6309	-0.2717	-7.7074
C	-5.1036	-1.5476	-8.0074
C	-5.7287	-2.3360	-7.0267
C	-6.1641	-3.6965	-7.3662
C	-5.8831	-1.8010	-5.7340
C	-5.4128	-0.5280	-5.4370
H	2.9767	-2.6248	9.9936
H	4.2373	-2.7579	11.2411
H	4.4010	-1.5937	9.9173
H	2.7684	-4.7202	10.7652
H	2.6009	-6.2461	9.8878
H	4.0905	-7.9119	8.6141
H	4.2071	-7.4955	6.8940
H	2.8366	-6.9324	7.8365
H	7.6681	-6.6215	6.8330
H	6.3139	-7.6642	7.1413
H	8.0866	-4.6770	6.3301
H	7.9413	-3.0119	6.8925
H	8.7777	-4.2155	7.8943
H	6.4953	-1.7273	10.0313
H	7.8340	-2.3135	9.0388
H	-4.5861	-7.6379	-8.5637
H	-4.6698	-5.9636	-7.9958
H	-3.3007	-6.9681	-7.5334
H	-3.1224	-10.0883	-5.6560
H	-3.2090	-9.1734	-7.1669
H	-4.7362	-9.6123	-2.4473
H	-3.3347	-9.6060	-3.5058
H	-4.6123	-10.8080	-3.7513
H	-6.8417	-9.7730	-2.6146
H	-8.1467	-8.6626	-2.8921
H	-8.4546	-6.6856	-3.3911
H	-9.1408	-7.0225	-4.9893
H	-8.2381	-5.5216	-4.6980
H	-8.1208	-5.9683	-6.9047
H	-6.7669	-6.0067	-8.0398
H	6.3776	3.0083	-9.8252
H	4.8928	2.9765	-8.8595
H	6.1048	1.7266	-8.6305
H	5.0209	5.1267	-9.2908
H	5.1262	6.5965	-8.3162
H	6.1991	7.2004	-4.9153
H	6.4530	7.8201	-6.5541
H	4.9607	6.9461	-6.1386
H	9.5181	5.7613	-4.5444
H	8.3145	7.0421	-4.7320
H	10.4322	3.7427	-5.4750
H	9.5355	2.2309	-5.2572
H	9.3167	3.5503	-4.1074
H	8.2327	1.6330	-8.5236
H	9.4088	1.7522	-7.2519
H	-6.0209	7.7144	7.0287
H	-4.5672	7.1104	6.2159
H	-5.8776	6.0021	6.5911
H	-4.5716	10.0696	4.0388
H	-4.5470	9.2248	5.5900
H	-5.6329	9.0697	0.7282
H	-5.8131	10.3963	1.8866
H	-4.3946	9.3256	1.9522
H	-7.7321	8.9410	0.5687
H	-9.0313	7.8217	0.9944
H	-10.0806	6.5703	2.7444
H	-9.3076	5.0836	3.3179
H	-8.9930	5.6573	1.6794
H	-9.1935	5.6121	5.2980
H	-8.0238	6.0598	6.5017
H	6.8591	-1.8734	-6.5521
H	5.8200	-3.7553	-5.2848
H	4.8789	-1.0538	-2.0621
H	5.8813	0.8200	-3.3448
H	6.8100	1.7256	-5.3211
H	5.6735	-3.1823	-0.9760
H	3.0030	-6.5511	-0.8159
H	3.5130	-4.3741	-4.5014
H	1.2295	-4.7633	-4.4712
H	-0.6221	-6.1071	-5.4394
H	-1.1973	-9.7767	-4.6336
H	0.8282	-9.5883	-3.3695
H	2.6911	-8.2639	-2.4206
H	4.4525	-3.0179	1.2060
H	4.9853	-3.3391	3.6079
H	5.4521	-4.7092	5.4687
H	5.6257	-7.5367	2.9263
H	5.0540	-7.2282	0.5164
H	0.3498	-2.7250	7.6870
H	-1.4613	-1.9282	6.1812
H	-3.1677	-5.8881	6.1436
H	-1.3458	-6.6784	7.6214
H	0.6862	-6.3485	8.8091
H	-3.7337	-1.4486	6.0430
H	-5.9291	-2.0175	2.3863
H	-3.4226	-5.1717	3.8916
H	-4.6693	-2.9749	0.4146
H	-5.2374	-4.3671	-1.5611
H	-5.8053	-6.4371	-2.5564
H	-6.1878	-7.6737	1.0196
H	-5.5810	-6.2917	3.0084
H	-4.9845	0.2944	2.2754
H	-5.8429	2.6164	2.4361
H	-6.6659	4.4499	3.6868
H	-6.8925	1.9623	6.5553
H	-5.9960	-0.3618	6.4121
H	6.1967	8.2111	-0.8825
H	5.0513	7.7626	1.2662
H	5.9604	3.5669	0.8624
H	7.1278	4.0314	-1.2874
H	7.3407	7.5065	-2.8308
H	6.1094	3.9055	3.2095
H	2.6640	4.5469	5.7075
H	3.0877	6.7365	2.0303
H	0.7742	6.3058	2.1234
H	-1.4216	7.3871	2.5715
H	-2.5430	8.4892	6.0372
H	-0.3998	7.7307	6.7357
H	1.7994	6.6842	6.2941
H	4.3842	4.2130	7.2987
H	5.0515	2.4345	8.8853
H	5.8625	0.2663	9.3797
H	6.2741	-0.0645	5.6043
H	5.5880	1.7111	4.0009
H	1.8411	5.1147	-5.7988
H	-0.4031	4.4879	-4.9244
H	-1.4441	2.8628	-8.7800
H	0.7985	3.4708	-9.6348
H	2.9768	4.3714	-9.3570
H	-2.4181	1.3123	-7.2289
H	-5.8790	2.1742	-4.8180
H	-2.6874	5.0480	-5.1142
H	-5.7316	3.0318	-2.5958
H	-6.8237	4.5612	-0.9649
H	-6.7814	8.3547	-1.3111
H	-5.6483	7.9398	-3.3544
H	-4.5814	6.4247	-4.9938
H	-4.1639	0.3286	-8.4893
H	-4.9869	-1.9438	-9.0188
H	-5.9733	-4.0043	-8.4157
H	-6.3579	-2.4165	-4.9694
H	-5.5088	-0.1435	-4.4205
