324

C	3.8966	5.0494	-12.4596
C	2.4999	4.6080	-12.8444
C	1.4114	5.4981	-12.7145
C	0.0976	5.0543	-12.9713
C	-0.1197	3.7398	-13.4360
C	0.9640	2.8480	-13.5751
C	2.2738	3.2953	-13.3064
C	3.4465	2.3476	-13.5199
N	3.6139	1.4546	-12.3747
C	0.7318	1.4074	-13.9784
C	-1.5271	3.2806	-13.7656
N	-2.3285	2.6619	-12.7017
C	-1.0804	5.9743	-12.7222
C	1.6486	6.9345	-12.2882
N	1.6352	7.2568	-10.8571
C	0.4385	-13.5589	1.9855
C	-0.8102	-13.4635	1.1346
C	-2.0809	-13.3388	1.7326
C	-3.2293	-13.1657	0.9306
C	-3.1122	-13.1832	-0.4747
C	-1.8418	-13.3032	-1.0789
C	-0.7009	-13.4786	-0.2709
C	0.6616	-13.7001	-0.9110
N	1.4215	-12.4551	-0.9751
C	-1.7026	-13.2186	-2.5848
C	-4.3565	-13.0819	-1.3383
N	-4.8117	-11.7580	-1.7771
C	-4.5813	-12.9443	1.5776
C	-2.2169	-13.3998	3.2426
N	-2.1163	-12.1558	4.0140
C	12.3941	4.1058	4.5263
C	11.8159	3.4747	5.7764
C	12.0525	2.1107	6.0526
C	11.4443	1.4975	7.1667
C	10.6534	2.2700	8.0418
C	10.4128	3.6323	7.7740
C	11.0252	4.2416	6.6573
C	10.8322	5.7254	6.4037
N	9.6753	6.1636	5.6135
C	9.4855	4.4297	8.6672
C	10.0686	1.6230	9.2880
N	8.8252	0.9201	8.9813
C	11.6075	0.0142	7.4203
C	12.9663	1.3062	5.1469
N	12.3855	0.6118	3.9918
C	-11.2190	7.8848	3.0889
C	-10.9755	7.2318	4.4339
C	-11.5749	5.9916	4.7383
C	-11.2777	5.3388	5.9545
C	-10.4337	5.9677	6.8919
C	-9.8324	7.2087	6.5944
C	-10.1317	7.8551	5.3778
C	-9.5428	9.2213	5.0787
N	-8.2389	9.2956	4.4071
C	-8.8515	7.8197	7.5720
C	-10.1707	5.3144	8.2415
N	-8.9089	4.5764	8.2329
C	-11.8415	3.9609	6.2351
C	-12.5456	5.3630	3.7551
N	-12.0254	4.4590	2.7231
C	2.9435	-10.4409	-3.6327
C	3.6282	-9.2531	-3.8615
C	3.9881	-8.4198	-2.7798
C	4.6571	-7.1937	-3.0048
C	5.2048	-6.1205	-3.1995
C	5.8212	-4.8615	-3.4131
C	5.6704	-4.1941	-4.6436
C	6.2645	-2.9347	-4.8503
C	6.0728	-2.2414	-6.0732
C	5.8774	-1.6157	-7.1029
C	5.6112	-0.8722	-8.2783
C	6.5534	0.0481	-8.7864
C	6.2635	0.7882	-9.9275
C	5.0307	0.6468	-10.5899
C	4.7442	1.4693	-11.7702
C	4.0923	-0.2757	-10.0859
C	4.3768	-1.0263	-8.9562
C	7.0224	-2.3478	-3.8172
C	7.1711	-3.0001	-2.5795
C	7.8964	-2.3848	-1.5220
C	8.4872	-1.8551	-0.5953
C	9.1536	-1.2293	0.4912
C	8.4256	-0.4646	1.4277
C	9.0793	0.1480	2.4915
C	10.4691	0.0198	2.6557
C	11.1216	0.6856	3.7899
C	11.1958	-0.7438	1.7220
C	10.5529	-1.3586	0.6574
C	6.5698	-4.2575	-2.3838
C	3.6495	-8.8246	-1.4648
C	2.9583	-10.0057	-1.2479
C	2.5894	-10.8308	-2.3290
C	1.8371	-12.0715	-2.1254
C	-8.7776	3.1902	1.6066
C	-8.1735	2.3696	0.6600
C	-8.9580	1.6943	-0.2996
C	-8.3351	0.8543	-1.2604
C	-7.7557	0.1432	-2.0654
C	-7.0385	-0.6859	-2.9734
C	-6.4870	-0.1447	-4.1498
C	-5.7325	-0.9513	-5.0231
C	-5.1328	-0.3813	-6.1807
C	-4.5850	0.1265	-7.1458
C	-3.9108	0.7240	-8.2437
C	-2.5889	1.1951	-8.0943
C	-1.9277	1.7786	-9.1700
C	-2.5542	1.9091	-10.4219
C	-1.8173	2.5237	-11.5339
C	-3.8733	1.4402	-10.5704
C	-4.5416	0.8577	-9.5033
C	-5.5391	-2.3117	-4.7175
C	-6.0843	-2.8647	-3.5433
C	-5.8391	-4.2275	-3.2133
C	-5.5886	-5.3831	-2.9106
C	-5.2538	-6.7136	-2.5398
C	-6.0299	-7.8149	-2.9739
C	-5.6868	-9.1107	-2.6125
C	-4.5576	-9.3582	-1.8075
C	-4.1593	-10.7162	-1.4125
C	-3.7892	-8.2642	-1.3725
C	-4.1254	-6.9617	-1.7289
C	-6.8367	-2.0480	-2.6785
C	-10.3618	1.8716	-0.2762
C	-10.9546	2.6935	0.6720
C	-10.1720	3.3662	1.6308
C	-10.7636	4.2466	2.6475
C	-5.6479	9.3655	3.0670
C	-4.4142	9.3035	2.4330
C	-3.8258	8.0550	2.1216
C	-2.5589	7.9694	1.4845
C	-1.4716	7.8319	0.9475
C	-0.2141	7.6176	0.3162
C	-0.1211	7.5892	-1.0882
C	1.1082	7.3171	-1.7180
C	1.1824	7.2393	-3.1371
C	1.2335	7.1358	-4.3522
C	1.2844	6.9563	-5.7608
C	1.0497	5.6805	-6.3165
C	1.1007	5.4950	-7.6939
C	1.3822	6.5658	-8.5595
C	1.4180	6.3219	-10.0070
C	1.6156	7.8399	-8.0063
C	1.5688	8.0349	-6.6327
C	2.2526	7.0842	-0.9311
C	2.1741	7.1168	0.4748
C	3.3267	6.8532	1.2676
C	4.3079	6.6043	1.9496
C	5.4468	6.2872	2.7378
C	5.8031	4.9419	2.9721
C	6.9201	4.6357	3.7430
C	7.7172	5.6506	4.3017
C	8.8905	5.2850	5.1069
C	7.3621	6.9931	4.0676
C	6.2483	7.3086	3.3027
C	0.9379	7.3866	1.0919
C	-4.5203	6.8744	2.4626
C	-5.7546	6.9468	3.0984
C	-6.3380	8.1870	3.4115
C	-7.6403	8.2073	4.0894
C	-6.4722	2.9942	8.2613
C	-5.3633	2.1629	8.2451
C	-5.4977	0.7721	8.4818
C	-4.3649	-0.0761	8.4069
C	-3.3787	-0.7873	8.2934
C	-2.2301	-1.6009	8.1018
C	-2.3583	-2.8855	7.5363
C	-1.2202	-3.6731	7.2795
C	-1.3540	-4.9475	6.6610
C	-1.4638	-6.0287	6.1059
C	-1.5826	-7.2796	5.4428
C	-1.4599	-7.3594	4.0389
C	-1.5720	-8.5875	3.3935
C	-1.8053	-9.7691	4.1183
C	-1.9143	-11.0477	3.4021
C	-1.9290	-9.6886	5.5189
C	-1.8203	-8.4692	6.1721
C	0.0537	-3.1770	7.6127
C	0.1956	-1.9005	8.1934
C	1.4848	-1.3989	8.5044
C	2.5979	-0.9579	8.7419
C	3.8885	-0.4301	8.9822
C	5.0158	-0.9420	8.2930
C	6.2762	-0.4033	8.4999
C	6.4610	0.6566	9.4098
C	7.7768	1.2603	9.6358
C	5.3457	1.1561	10.1050
C	4.0761	0.6297	9.8960
C	-0.9501	-1.1177	8.4347
C	-6.7818	0.2539	8.7582
C	-7.8870	1.0985	8.7857
C	-7.7539	2.4745	8.5291
C	-8.9449	3.3302	8.5296
H	4.4371	4.2472	-11.9430
H	4.4976	5.3361	-13.3377
H	3.8805	5.9050	-11.7764
H	3.2389	1.7180	-14.3993
H	4.3686	2.9125	-13.7477
H	-0.2799	1.0708	-13.7266
H	1.4317	0.7417	-13.4594
H	0.8683	1.2601	-15.0627
H	-2.1246	4.1213	-14.1509
H	-1.5107	2.5597	-14.5978
H	-1.9699	5.4132	-12.4122
H	-1.3516	6.5481	-13.6237
H	-0.8689	6.6966	-11.9253
H	2.6123	7.2973	-12.6781
H	0.9059	7.5976	-12.7586
H	0.2953	-13.1052	2.9724
H	1.2748	-13.0350	1.5073
H	0.7450	-14.6061	2.1451
H	0.5537	-14.1758	-1.9031
H	1.2361	-14.4035	-0.2879
H	-1.6369	-14.2148	-3.0513
H	-0.7992	-12.6656	-2.8684
H	-2.5475	-12.6938	-3.0435
H	-4.2359	-13.6842	-2.2525
H	-5.2136	-13.5463	-0.8262
H	-5.1102	-13.8944	1.7588
H	-5.2314	-12.3216	0.9517
H	-4.4877	-12.4326	2.5428
H	-3.1792	-13.8563	3.5215
H	-1.4644	-14.0840	3.6650
H	12.5003	3.3741	3.7168
H	13.3902	4.5413	4.7090
H	11.7513	4.9079	4.1443
H	11.7201	6.1462	5.9066
H	10.7782	6.2718	7.3583
H	8.6219	3.8294	8.9773
H	9.0853	5.3122	8.1570
H	9.9905	4.7752	9.5837
H	9.9379	2.3715	10.0910
H	10.7824	0.8763	9.6698
H	11.8413	-0.5337	6.5006
H	10.6824	-0.4141	7.8245
H	12.4162	-0.1915	8.1412
H	13.5019	0.5398	5.7286
H	13.7679	1.9473	4.7480
H	-11.4175	7.1420	2.3076
H	-10.3485	8.4646	2.7596
H	-12.0803	8.5723	3.1163
H	-10.2392	9.8110	4.4626
H	-9.4450	9.8059	6.0068
H	-9.3646	8.3981	8.3583
H	-8.1474	8.4957	7.0744
H	-8.2578	7.0400	8.0641
H	-11.0244	4.6786	8.5394
H	-10.0847	6.1017	9.0067
H	-11.1139	3.3334	6.7630
H	-12.7499	4.0041	6.8575
H	-12.0984	3.4313	5.3112
H	-13.3256	4.8020	4.2926
H	-13.1040	6.1473	3.2202
H	2.6669	-11.0768	-4.4767
H	3.8898	-8.9507	-4.8754
H	5.0813	-4.6506	-5.4374
H	7.5074	0.1715	-8.2739
H	6.9998	1.4979	-10.3116
H	5.5751	2.1222	-12.1085
H	3.1379	-0.3815	-10.6023
H	3.6476	-1.7379	-8.5684
H	7.4793	-1.3715	-3.9714
H	7.3476	-0.3601	1.3053
H	8.5079	0.7376	3.2120
H	10.4506	1.2560	4.4591
H	12.2736	-0.8389	1.8561
H	11.1187	-1.9487	-0.0638
H	6.6797	-4.7652	-1.4268
H	3.9307	-8.1866	-0.6267
H	2.6830	-10.3167	-0.2398
H	1.6389	-12.6654	-3.0415
H	-8.1608	3.7082	2.3447
H	-7.0916	2.2394	0.6491
H	-6.6302	0.9104	-4.3781
H	-2.0951	1.0969	-7.1276
H	-0.9040	2.1391	-9.0449
H	-0.7887	2.8547	-11.2979
H	-4.3548	1.5442	-11.5431
H	-5.5630	0.4956	-9.6233
H	-4.9481	-2.9368	-5.3852
H	-6.9039	-7.6311	-3.5992
H	-6.2827	-9.9604	-2.9470
H	-3.2559	-10.7812	-0.7771
H	-2.9115	-8.4428	-0.7470
H	-3.5205	-6.1215	-1.3882
H	-7.2524	-2.4691	-1.7643
H	-10.9724	1.3529	-1.0156
H	-12.0356	2.8341	0.6931
H	-10.0454	4.7176	3.3450
H	-6.1039	10.3253	3.3113
H	-3.8825	10.2185	2.1706
H	-1.0109	7.7608	-1.6920
H	0.8289	4.8444	-5.6532
H	0.9175	4.5028	-8.1129
H	1.2401	5.2749	-10.3168
H	1.8323	8.6679	-8.6817
H	1.7506	9.0229	-6.2091
H	3.2041	6.8659	-1.4137
H	5.1929	4.1477	2.5423
H	7.1852	3.5905	3.9183
H	9.0527	4.1998	5.2482
H	7.9828	7.7775	4.5015
H	5.9782	8.3499	3.1255
H	0.8690	7.4022	2.1786
H	-4.0747	5.9085	2.2254
H	-6.2820	6.0270	3.3621
H	-8.0736	7.2135	4.3096
H	-6.3745	4.0619	8.0638
H	-4.3734	2.5681	8.0339
H	-3.3453	-3.2622	7.2724
H	-1.2777	-6.4489	3.4682
H	-1.4746	-8.6373	2.3065
H	-1.8089	-10.9917	2.3024
H	-2.1107	-10.6076	6.0769
H	-1.9164	-8.4138	7.2566
H	0.9378	-3.7805	7.4132
H	4.8752	-1.7622	7.5888
H	7.1443	-0.7860	7.9628
H	7.8109	2.0494	10.4152
H	5.4798	1.9763	10.8138
H	3.2156	1.0290	10.4325
H	-0.8438	-0.1250	8.8697
H	-6.8966	-0.8137	8.9449
H	-8.8757	0.6860	8.9991
H	-9.8955	2.8244	8.7981
