144

C	-4.6406	-2.5141	1.6180
C	-4.7158	-1.2400	0.8034
C	-4.7339	-1.3004	-0.6058
C	-4.7300	-0.1130	-1.3673
C	-4.7805	1.1372	-0.7146
C	-4.7608	1.2032	0.6943
C	-4.7638	0.0125	1.4506
C	-4.8554	0.0760	2.9637
N	-3.6209	0.1184	3.7527
C	-4.7296	2.5468	1.3933
C	-4.8974	2.4123	-1.5293
N	-3.6794	3.1048	-1.9610
C	-4.6683	-0.1788	-2.8786
C	-4.8152	-2.6480	-1.3016
N	-3.5837	-3.3533	-1.6640
C	4.6348	2.6131	1.2863
C	4.7136	1.2730	0.5851
C	4.7578	0.0823	1.3405
C	4.7579	-1.1703	0.6928
C	4.7822	-1.2284	-0.7161
C	4.7374	-0.0413	-1.4776
C	4.7406	1.2090	-0.8239
C	4.8139	2.4904	-1.6348
N	3.5741	3.1577	-2.0395
C	4.6781	-0.1107	-2.9891
C	4.8896	-2.5721	-1.4120
N	3.6634	-3.2935	-1.7631
C	4.7250	-2.4479	1.5053
C	4.8529	0.1520	2.8528
N	3.6272	0.1757	3.6522
C	-0.0465	2.6976	-1.7152
C	-1.2768	3.2730	-2.0718
C	-2.5330	2.6225	-1.6576
C	-1.2870	4.4584	-2.8197
C	-0.0800	5.0678	-3.2126
C	-0.0982	6.2741	-3.9676
C	-0.1163	7.3141	-4.6150
Si	-0.1367	8.8721	-5.5849
C	1.0251	10.0951	-4.7617
C	0.4417	8.4936	-7.3298
C	-1.8917	9.5359	-5.6054
C	1.1439	4.4735	-2.8486
C	1.1677	3.2899	-2.0976
C	2.4426	2.6578	-1.7099
C	0.0401	-2.8544	-1.4913
C	-1.1811	-3.4799	-1.7866
C	-2.4467	-2.8150	-1.4281
C	-1.1736	-4.7299	-2.4217
C	0.0417	-5.3563	-2.7593
C	0.0409	-6.6213	-3.4106
C	0.0403	-7.7080	-3.9762
Si	0.0538	-9.3336	-4.8270
C	1.7249	-9.5511	-5.6541
C	-0.2269	-10.6688	-3.5369
C	-1.3191	-9.3447	-6.1078
C	1.2568	-4.7155	-2.4486
C	1.2617	-3.4645	-1.8161
C	2.5236	-2.7818	-1.4846
C	-0.0048	0.1239	3.1878
C	-1.2149	0.1517	3.8988
C	-2.4875	0.1072	3.1583
C	-1.1867	0.2222	5.2984
C	0.0410	0.2659	5.9873
C	0.0652	0.3471	7.4083
C	0.0826	0.4265	8.6309
Si	0.0917	0.5635	10.4609
C	-1.3397	1.6643	10.9744
C	-0.1049	-1.1581	11.1855
C	1.7251	1.3242	10.9859
C	1.2442	0.2338	5.2561
C	1.2287	0.1643	3.8560
C	2.4831	0.1358	3.0803
H	-4.1119	-2.3569	2.5657
H	-5.6429	-2.9034	1.8619
H	-4.1042	-3.3056	1.0815
H	-5.4452	0.9532	3.2724
H	-5.4326	-0.7814	3.3442
H	-4.2209	3.3057	0.7871
H	-4.1937	2.4916	2.3484
H	-5.7440	2.9217	1.6068
H	-5.4800	2.2239	-2.4448
H	-5.4949	3.1577	-0.9818
H	-4.1560	0.6941	-3.3002
H	-4.1225	-1.0656	-3.2221
H	-5.6742	-0.2179	-3.3283
H	-5.3968	-2.5565	-2.2325
H	-5.4013	-3.3515	-0.6898
H	4.1035	2.5381	2.2425
H	4.1001	3.3552	0.6819
H	5.6363	3.0226	1.4983
H	5.4032	3.2464	-1.0922
H	5.3854	2.3211	-2.5606
H	4.1367	0.7443	-3.4112
H	5.6842	-0.1180	-3.4395
H	4.1602	-1.0149	-3.3308
H	5.4636	-2.4725	-2.3464
H	5.4887	-3.2671	-0.8031
H	5.7396	-2.8122	1.7360
H	4.2036	-2.3066	2.4594
H	4.2024	-3.2514	0.9730
H	5.4494	-0.6914	3.2343
H	5.4284	1.0416	3.1542
H	-0.0345	1.7738	-1.1299
H	-2.4213	1.6905	-1.0713
H	-2.2441	4.9018	-3.0921
H	2.0514	9.7027	-4.7304
H	1.0416	11.0470	-5.3133
H	0.7128	10.3049	-3.7291
H	-0.2215	7.7655	-7.8177
H	1.4579	8.0748	-7.3270
H	0.4522	9.4082	-7.9414
H	-2.2509	9.7361	-4.5861
H	-1.9449	10.4755	-6.1754
H	-2.5805	8.8168	-6.0707
H	2.0884	4.9284	-3.1447
H	2.3576	1.7261	-1.1185
H	0.0401	-1.8782	-0.9982
H	-2.3504	-1.8240	-0.9442
H	-2.1241	-5.2102	-2.6511
H	1.9062	-8.7556	-6.3906
H	2.5385	-9.5194	-4.9159
H	1.7773	-10.5176	-6.1773
H	0.5609	-10.6460	-2.7707
H	-1.1929	-10.5306	-3.0312
H	-0.2238	-11.6668	-4.0001
H	-1.3454	-10.3068	-6.6410
H	-2.3004	-9.1893	-5.6377
H	-1.1707	-8.5483	-6.8506
H	2.2084	-5.1831	-2.6986
H	2.4222	-1.8014	-0.9812
H	-0.0250	0.0701	2.0957
H	-2.3992	0.0638	2.0559
H	-2.1286	0.2452	5.8452
H	-1.3743	1.7724	12.0689
H	-1.2414	2.6675	10.5365
H	-2.3001	1.2444	10.6437
H	-1.0502	-1.6161	10.8621
H	0.7155	-1.8170	10.8682
H	-0.1045	-1.1189	12.2852
H	1.7768	1.4237	12.0804
H	2.5720	0.7037	10.6606
H	1.8518	2.3238	10.5470
H	2.2038	0.2663	5.7708
H	2.3712	0.0819	1.9805
