132

C	-4.7048	-2.5331	1.4411
C	-4.7650	-1.2166	0.6944
C	-4.7789	0.0006	1.4064
C	-4.7478	1.2290	0.7140
C	-4.7722	1.2368	-0.6964
C	-4.7593	0.0222	-1.4137
C	-4.7928	-1.2029	-0.7155
C	-4.8805	-2.5084	-1.4827
N	-3.6421	-3.1829	-1.8805
C	-4.6959	0.0361	-2.9268
C	-4.8465	2.5553	-1.4431
N	-3.6060	3.2399	-1.8169
C	-4.6755	2.5314	1.4845
C	-4.8564	-0.0147	2.9205
N	-3.6159	-0.0429	3.6995
C	4.6852	-2.5661	1.3899
C	4.7536	-1.2368	0.6668
C	4.7853	-0.0331	1.4007
C	4.7658	1.2075	0.7311
C	4.7886	1.2416	-0.6789
C	4.7554	0.0415	-1.4187
C	4.7724	-1.1966	-0.7427
C	4.8444	-2.4887	-1.5335
N	3.6022	-3.1587	-1.9273
C	4.6877	0.0813	-2.9314
C	4.8761	2.5726	-1.4010
N	3.6396	3.2617	-1.7815
C	4.7056	2.4981	1.5213
C	4.8665	-0.0752	2.9135
N	3.6265	-0.0980	3.6926
C	-0.0549	-8.7805	-5.3159
C	-1.0070	-8.5561	-4.3167
C	-0.9962	-7.3649	-3.5905
C	-0.0313	-6.3739	-3.8466
C	0.9227	-6.6140	-4.8517
C	0.9104	-7.8048	-5.5796
C	-0.0239	-5.1074	-3.0758
C	-1.2288	-4.4947	-2.7005
C	-1.2390	-3.2980	-1.9690
C	-2.5102	-2.6609	-1.5855
C	-0.0189	-2.7023	-1.6139
C	1.1990	-3.2941	-1.9826
C	2.4709	-2.6533	-1.6041
C	1.1841	-4.4956	-2.7079
C	0.0322	9.0275	-4.9352
C	0.9977	8.7494	-3.9636
C	0.9923	7.5234	-3.2974
C	0.0197	6.5494	-3.5868
C	-0.9473	6.8432	-4.5651
C	-0.9403	8.0687	-5.2328
C	0.0163	5.2458	-2.8790
C	-1.1903	4.6164	-2.5363
C	-1.2031	3.3794	-1.8733
C	-2.4733	2.7220	-1.5194
C	0.0158	2.7696	-1.5390
C	1.2349	3.3832	-1.8659
C	2.5063	2.7314	-1.5072
C	1.2224	4.6146	-2.5379
C	0.0160	-0.2885	10.2704
C	0.9707	-1.0044	9.5420
C	0.9686	-0.9610	8.1469
C	0.0101	-0.2026	7.4494
C	-0.9472	0.5084	8.1959
C	-0.9434	0.4671	9.5909
C	0.0083	-0.1528	5.9658
C	1.2137	-0.1344	5.2470
C	1.2244	-0.0917	3.8442
C	2.4936	-0.0701	3.0964
C	0.0049	-0.0614	3.1513
C	-1.2131	-0.0741	3.8475
C	-2.4835	-0.0459	3.1018
C	-1.1990	-0.1224	5.2501
H	-5.7105	-2.9255	1.6640
H	-4.1756	-3.2999	0.8629
H	-4.1743	-2.4320	2.3951
H	-5.4629	-2.3676	-2.4068
H	-5.4622	-3.2473	-0.9095
H	-4.1853	-0.8515	-3.3183
H	-4.1459	0.9089	-3.2984
H	-5.7008	0.0638	-3.3792
H	-5.4338	3.2844	-0.8626
H	-5.4202	2.4313	-2.3749
H	-4.1571	3.3106	0.9137
H	-4.1290	2.4110	2.4274
H	-5.6778	2.9174	1.7328
H	-5.4233	0.8582	3.2805
H	-5.4498	-0.8779	3.2605
H	5.6887	-2.9662	1.6096
H	4.1554	-3.3210	0.7972
H	4.1520	-2.4790	2.3439
H	5.4147	-2.3331	-2.4627
H	5.4332	-3.2377	-0.9808
H	4.1387	-0.7791	-3.3322
H	4.1744	0.9812	-3.2898
H	5.6914	0.0716	-3.3874
H	5.4555	3.2922	-0.8015
H	5.4625	2.4631	-2.3270
H	4.1801	2.3637	2.4741
H	4.1712	3.2821	0.9716
H	5.7113	2.8858	1.7521
H	5.4469	0.7828	3.2872
H	5.4474	-0.9529	3.2375
H	-0.0647	-9.7113	-5.8844
H	-1.7576	-9.3166	-4.0962
H	-1.7299	-7.2078	-2.7985
H	1.6661	-5.8487	-5.0795
H	1.6535	-7.9676	-6.3617
H	-2.1879	-4.9242	-2.9900
H	-2.4252	-1.7079	-1.0289
H	-0.0168	-1.7676	-1.0457
H	2.3860	-1.7117	-1.0282
H	2.1412	-4.9522	-2.9605
H	0.0380	9.9850	-5.4578
H	1.7548	9.4951	-3.7162
H	1.7362	7.3261	-2.5242
H	-1.6969	6.0930	-4.8212
H	-1.6932	8.2719	-5.9958
H	-2.1485	5.0859	-2.7599
H	-2.3860	1.7572	-0.9837
H	0.0156	1.8078	-1.0180
H	2.4193	1.7592	-0.9849
H	2.1807	5.0585	-2.8079
H	0.0190	-0.3204	11.3608
H	1.7182	-1.6050	10.0627
H	1.7053	-1.5399	7.5877
H	-1.6865	1.1194	7.6758
H	-1.6886	1.0355	10.1496
H	2.1728	-0.1306	5.7651
H	2.4052	-0.0303	1.9936
H	0.0037	-0.0262	2.0579
H	-2.3961	-0.0260	1.9983
H	-2.1570	-0.1592	5.7691
