120

C	-4.8775	1.5381	2.4682
N	-3.6339	1.9589	3.1140
C	-4.8184	0.7294	1.1836
C	-4.7976	1.3925	-0.0627
C	-4.8149	0.6388	-1.2563
C	-4.7935	-0.7719	-1.2062
C	-4.8095	-1.4301	0.0435
C	-4.7973	-0.6811	1.2401
C	-4.7785	-1.3890	2.5844
C	-6.1842	-1.6867	3.1361
C	-4.8576	-2.9477	0.1009
N	-3.6072	-3.7091	0.1306
C	-4.7702	-1.5796	-2.4922
C	-6.1736	-1.9232	-3.0224
C	-4.8692	1.3499	-2.5987
N	-3.6226	1.7108	-3.2764
C	-4.7772	2.9100	-0.1176
C	-6.1824	3.5384	-0.1358
C	4.8604	1.5816	2.4842
N	3.6100	1.9873	3.1276
C	4.8154	0.7721	1.1993
C	4.8002	1.4336	-0.0477
C	4.8217	0.6781	-1.2400
C	4.8044	-0.7322	-1.1893
C	4.8233	-1.3886	0.0607
C	4.7998	-0.6387	1.2567
C	4.7682	-1.3451	2.6015
C	6.1668	-1.6354	3.1751
C	4.8769	-2.9057	0.1190
N	3.6301	-3.6718	0.1407
C	4.7783	-1.5407	-2.4749
C	6.1794	-1.8744	-3.0170
C	4.8683	1.3845	-2.5834
N	3.6166	1.7259	-3.2588
C	4.7740	2.9513	-0.1060
C	6.1745	3.5900	-0.1317
C	-0.0198	3.1821	5.0185
C	-1.2281	2.8062	4.4321
C	-1.2352	2.0454	3.2491
C	-2.5003	1.6355	2.6144
C	-0.0098	1.6765	2.6724
C	1.2105	2.0532	3.2549
C	2.4809	1.6559	2.6237
C	1.1937	2.8115	4.4398
C	0.0255	-5.9351	0.2374
C	1.2324	-5.2372	0.2061
C	1.2357	-3.8316	0.1517
C	2.4979	-3.0752	0.1227
C	0.0099	-3.1493	0.1292
C	-1.2084	-3.8448	0.1577
C	-2.4795	-3.1027	0.1272
C	-1.1889	-5.2499	0.2120
C	0.0017	2.7656	-5.2534
C	1.2105	2.4404	-4.6388
C	1.2205	1.7812	-3.3964
C	2.4875	1.4361	-2.7297
C	-0.0033	1.4575	-2.7911
C	-1.2242	1.7819	-3.4030
C	-2.4927	1.4319	-2.7428
C	-1.2103	2.4420	-4.6448
H	-5.4603	2.4583	2.3127
H	-5.4463	0.9948	3.2374
H	-4.2213	-0.7834	3.3131
H	-4.2132	-2.3278	2.5002
H	-6.1253	-2.1951	4.1087
H	-6.7653	-0.7636	3.2706
H	-6.7564	-2.3282	2.4514
H	-5.4304	-3.3446	-0.7504
H	-5.4306	-3.2785	0.9802
H	-4.2130	-1.0306	-3.2641
H	-4.2034	-2.5079	-2.3344
H	-6.7557	-1.0153	-3.2342
H	-6.1107	-2.5100	-3.9495
H	-6.7477	-2.5073	-2.2895
H	-5.4458	2.2830	-2.5130
H	-5.4428	0.7528	-3.3234
H	-4.2185	3.2403	-1.0044
H	-4.2132	3.3030	0.7399
H	-6.7615	3.1973	-1.0055
H	-6.7573	3.2615	0.7590
H	-6.1234	4.6349	-0.1760
H	5.4326	1.0437	3.2548
H	5.4331	2.5085	2.3314
H	4.1970	-0.7423	3.3214
H	4.2099	-2.2874	2.5100
H	6.0960	-2.1442	4.1465
H	6.7519	-2.2748	2.4990
H	6.7424	-0.7100	3.3173
H	5.4572	-3.2997	-0.7288
H	5.4457	-3.2344	1.0017
H	4.2116	-0.9954	-3.2425
H	4.2194	-2.4731	-2.3136
H	6.1127	-2.4582	-3.9458
H	6.7623	-2.4583	-2.2909
H	6.7556	-0.9631	-3.2303
H	5.4320	2.3259	-2.5023
H	5.4483	0.7925	-3.3071
H	4.2096	3.2766	-0.9913
H	4.2107	3.3439	0.7522
H	6.7535	3.2525	-1.0027
H	6.7544	3.3208	0.7622
H	6.1052	4.6860	-0.1740
H	-0.0244	3.7703	5.9377
H	-2.1849	3.0881	4.8719
H	-2.4086	1.0368	1.6878
H	-0.0056	1.0853	1.7516
H	2.3972	1.0598	1.6945
H	2.1465	3.0969	4.8858
H	0.0311	-7.0254	0.2805
H	2.1904	-5.7567	0.2245
H	2.4068	-1.9724	0.0877
H	0.0037	-2.0559	0.0880
H	-2.3994	-1.9990	0.0987
H	-2.1410	-5.7802	0.2339
H	0.0047	3.2775	-6.2171
H	2.1666	2.6879	-5.1001
H	2.4019	0.9211	-1.7533
H	-0.0067	0.9452	-1.8242
H	-2.4083	0.9168	-1.7666
H	-2.1645	2.6896	-5.1101
