240

C	-3.8420	-5.4383	-5.6652
N	-2.6921	-5.5239	-4.7667
C	-4.4278	-4.0348	-5.7350
C	-5.5559	-3.7047	-4.9571
C	-6.1354	-2.4220	-5.0813
C	-5.5567	-1.4581	-5.9330
C	-4.4295	-1.7997	-6.7102
C	-3.8484	-3.0792	-6.5980
C	-2.6098	-3.4382	-7.3993
C	-2.9261	-4.0417	-8.7787
C	-3.8674	-0.7961	-7.7080
N	-2.8999	0.1300	-7.1215
C	-6.1460	-0.0606	-6.0198
C	-7.2218	0.0888	-7.1107
C	-7.4161	-2.0969	-4.3291
N	-7.3633	-1.5448	-2.9769
C	-6.1497	-4.7130	-3.9870
C	-7.2082	-5.6386	-4.6115
C	4.1457	-5.7019	5.1339
N	3.0174	-4.7906	5.3018
C	4.6212	-5.7884	3.6916
C	5.7286	-5.0257	3.2696
C	6.2163	-5.1755	1.9527
C	5.5619	-6.0338	1.0451
C	4.4515	-6.7905	1.4764
C	3.9644	-6.6559	2.7923
C	2.7486	-7.4413	3.2514
C	3.0910	-8.8248	3.8335
C	3.8006	-7.7833	0.5247
N	2.7828	-7.1778	-0.3336
C	6.0557	-6.1529	-0.3863
C	7.1061	-7.2603	-0.5869
C	7.4787	-4.4407	1.5301
N	7.4019	-3.0902	0.9762
C	6.4056	-4.0561	4.2231
C	7.5172	-4.6935	5.0748
C	-3.2170	0.5849	8.0202
N	-2.2483	-0.2826	7.3545
C	-3.9142	1.5441	7.0671
C	-5.0849	1.1353	6.3920
C	-5.7804	2.0576	5.5830
C	-5.2805	3.3671	5.4053
C	-4.1109	3.7652	6.0843
C	-3.4107	2.8497	6.8986
C	-2.1367	3.2856	7.6010
C	-2.3804	3.8820	8.9985
C	-3.6181	5.2012	5.9767
N	-2.5460	5.3606	4.9963
C	-6.0202	4.3404	4.5038
C	-7.0661	5.1930	5.2427
C	-7.1049	1.6646	4.9456
N	-7.1453	1.1166	3.5908
C	-5.6047	-0.2824	6.5533
C	-6.5779	-0.4493	7.7340
C	3.2992	8.0108	-0.8174
N	2.3869	7.3682	0.1258
C	3.9052	7.0382	-1.8198
C	5.0843	6.3351	-1.4914
C	5.6991	5.5120	-2.4579
C	5.1073	5.3448	-3.7303
C	3.9248	6.0445	-4.0444
C	3.3066	6.8758	-3.0854
C	2.0124	7.5914	-3.4300
C	2.2186	8.9831	-4.0541
C	3.3264	5.9362	-5.4390
N	2.2365	4.9654	-5.5128
C	5.7600	4.4266	-4.7503
C	6.7545	5.1432	-5.6806
C	7.0352	4.8494	-2.1578
N	7.0915	3.4854	-1.6343
C	5.6979	6.4854	-0.1105
C	6.7108	7.6406	-0.0136
C	-1.6933	-7.8155	-2.0896
C	-0.6378	-8.1318	-1.2386
C	0.5346	-7.3572	-1.2358
C	1.6454	-7.7675	-0.3707
C	0.6154	-6.2382	-2.0920
C	-0.4358	-5.9246	-2.9399
C	-1.6034	-6.7171	-2.9601
C	-2.7109	-6.4543	-3.8856
C	-7.3901	-0.4856	-0.3271
C	-7.3488	0.0416	0.9519
C	-6.1158	0.3569	1.5629
C	-6.0684	0.9156	2.9251
C	-4.9299	0.1256	0.8462
C	-4.9721	-0.4080	-0.4446
C	-6.2005	-0.7199	-1.0501
C	-6.2438	-1.2770	-2.4129
C	0.4174	1.3176	-8.1300
C	1.4114	2.2402	-7.8154
C	1.2683	3.0923	-6.7084
C	2.3075	4.0925	-6.4482
C	0.1135	2.9802	-5.9049
C	-0.8745	2.0584	-6.2159
C	-0.7428	1.2198	-7.3438
C	-1.7899	0.2741	-7.7457
C	1.2076	-1.2580	8.0774
C	2.2254	-2.1180	7.6747
C	2.0431	-2.9760	6.5781
C	3.1165	-3.9121	6.2291
C	0.8200	-2.9359	5.8750
C	-0.1923	-2.0768	6.2733
C	-0.0166	-1.2309	7.3896
C	-1.0818	-0.3511	7.8802
C	4.9055	0.7702	-0.5000
C	4.9657	-0.5238	0.0246
C	6.2042	-1.1520	0.2356
C	6.2717	-2.5134	0.7924
C	7.3839	-0.4504	-0.0947
C	7.3250	0.8320	-0.6103
C	6.0824	1.4675	-0.8219
C	6.0196	2.8364	-1.3622
C	-0.4921	5.9131	2.9794
C	0.4581	6.3072	2.0504
C	0.2238	7.4192	1.2133
C	1.2284	7.8993	0.2601
C	-0.9964	8.1057	1.3181
C	-1.9520	7.7091	2.2499
C	-1.7086	6.6184	3.1009
C	-2.7095	6.2768	4.1153
H	-3.4824	-5.7248	-6.6652
H	-4.6225	-6.1742	-5.4024
H	-1.9832	-2.5451	-7.5267
H	-1.9939	-4.1373	-6.8175
H	-3.5279	-4.9576	-8.6891
H	-2.0031	-4.2969	-9.3187
H	-3.5033	-3.3435	-9.4016
H	-4.6928	-0.1793	-8.0932
H	-3.4479	-1.3212	-8.5853
H	-5.3366	0.6615	-6.1946
H	-6.5764	0.2178	-5.0476
H	-7.6129	1.1156	-7.1397
H	-6.8235	-0.1490	-8.1077
H	-8.0682	-0.5911	-6.9381
H	-8.0292	-1.3937	-4.9134
H	-8.0489	-2.9952	-4.2596
H	-6.5940	-4.1808	-3.1345
H	-5.3438	-5.3204	-3.5522
H	-6.7917	-6.2282	-5.4404
H	-8.0508	-5.0635	-5.0208
H	-7.6088	-6.3379	-3.8636
H	3.7978	-6.6956	5.4547
H	4.9831	-5.4436	5.8060
H	2.0511	-7.5621	2.4116
H	2.1970	-6.8504	3.9949
H	3.7591	-8.7422	4.7028
H	3.6066	-9.4565	3.0961
H	2.1816	-9.3519	4.1564
H	3.3983	-8.6469	1.0845
H	4.5710	-8.1919	-0.1458
H	6.4789	-5.1911	-0.7088
H	5.1983	-6.3274	-1.0506
H	7.9971	-7.0883	0.0335
H	6.7112	-8.2480	-0.3080
H	7.4283	-7.3099	-1.6367
H	8.1755	-4.3748	2.3802
H	8.0321	-5.0359	0.7879
H	6.8230	-3.2139	3.6543
H	5.6514	-3.6059	4.8835
H	7.9788	-3.9502	5.7405
H	7.1301	-5.5134	5.6962
H	8.3096	-5.1195	4.4433
H	-3.9693	-0.0778	8.4729
H	-2.7591	1.1398	8.8591
H	-1.6095	4.0146	6.9710
H	-1.4508	2.4318	7.6830
H	-3.0390	4.7612	8.9528
H	-1.4345	4.1935	9.4644
H	-2.8664	3.1571	9.6670
H	-3.2048	5.5093	6.9491
H	-4.4592	5.8873	5.7745
H	-5.2981	4.9996	4.0022
H	-6.5113	3.7875	3.6913
H	-7.5811	5.8735	4.5495
H	-6.6055	5.7990	6.0357
H	-7.8269	4.5631	5.7249
H	-7.6244	0.9289	5.5781
H	-7.7886	2.5274	4.9382
H	-6.1028	-0.5984	5.6259
H	-4.7546	-0.9682	6.6718
H	-6.1058	-0.1753	8.6886
H	-6.9238	-1.4895	7.8148
H	-7.4620	0.1943	7.6220
H	2.8152	8.8531	-1.3441
H	4.1076	8.4545	-0.2177
H	1.4242	6.9612	-4.1108
H	1.3946	7.6861	-2.5269
H	2.7607	9.6544	-3.3729
H	1.2541	9.4513	-4.2975
H	2.8089	8.9269	-4.9799
H	2.8999	6.9110	-5.7203
H	4.1123	5.7240	-6.1853
H	4.9832	3.9358	-5.3531
H	6.2754	3.6074	-4.2305
H	7.2073	4.4373	-6.3915
H	7.5663	5.6157	-5.1100
H	6.2643	5.9402	-6.2575
H	7.6098	5.4619	-1.4466
H	7.6624	4.8470	-3.0627
H	6.1909	5.5457	0.1766
H	4.8972	6.6282	0.6280
H	6.2463	8.6062	-0.2605
H	7.5456	7.5031	-0.7155
H	7.1286	7.7155	1.0003
H	-2.5956	-8.4313	-2.0921
H	-0.7119	-8.9957	-0.5742
H	1.4476	-8.6696	0.2460
H	1.5257	-5.6380	-2.0787
H	-0.3790	-5.0699	-3.6147
H	-3.5756	-7.1453	-3.7953
H	-8.3391	-0.7310	-0.8042
H	-8.2638	0.2230	1.5163
H	-5.0651	1.1450	3.3317
H	-3.9682	0.3653	1.3054
H	-4.0433	-0.5832	-0.9925
H	-5.2702	-1.4480	-2.9101
H	0.5313	0.6692	-9.0016
H	2.3051	2.3152	-8.4389
H	3.1714	4.0662	-7.1452
H	0.0149	3.6407	-5.0428
H	-1.7743	1.9702	-5.6061
H	-1.5688	-0.3067	-8.6661
H	1.3534	-0.6042	8.9401
H	3.1706	-2.1393	8.2217
H	4.0313	-3.8347	6.8537
H	0.6888	-3.6037	5.0228
H	-1.1455	-2.0462	5.7444
H	-0.8192	0.2491	8.7769
H	3.9364	1.2489	-0.6584
H	4.0437	-1.0533	0.2758
H	5.3081	-2.9974	1.0407
H	8.3397	-0.9476	0.0710
H	8.2330	1.3792	-0.8637
H	5.0101	3.2639	-1.5125
H	-0.3166	5.0633	3.6397
H	1.4054	5.7762	1.9532
H	0.9288	8.7877	-0.3347
H	-1.1884	8.9633	0.6694
H	-2.8933	8.2569	2.3344
H	-3.6309	6.8959	4.0947
