288

C	-5.6753	5.5801	2.7485
N	-4.3128	5.1361	3.0565
C	-6.3922	4.7087	1.7287
C	-6.4547	5.1068	0.3762
C	-7.1896	4.3321	-0.5494
C	-7.8349	3.1485	-0.1331
C	-7.7772	2.7631	1.2237
C	-7.0344	3.5248	2.1509
C	-6.9466	3.0822	3.6013
C	-8.0768	3.6393	4.4845
C	-8.5515	1.5428	1.6928
N	-7.9710	0.2077	1.5577
C	-8.6076	2.3031	-1.1323
C	-10.0780	2.7300	-1.2960
C	-7.3272	4.8017	-1.9886
N	-6.2717	4.5274	-2.9626
C	-5.7566	6.3756	-0.0834
C	-6.6188	7.6405	0.0798
C	-3.9048	-7.0837	-1.0801
N	-4.1216	-5.6492	-0.8800
C	-2.4397	-7.4791	-0.9782
C	-1.9209	-7.9487	0.2470
C	-0.5723	-8.3583	0.3188
C	0.2690	-8.2453	-0.8089
C	-0.2635	-7.7955	-2.0350
C	-1.6126	-7.3922	-2.1185
C	-2.1784	-6.8767	-3.4295
C	-2.7948	-7.9797	-4.3073
C	0.6052	-7.7862	-3.2834
N	1.2035	-6.4818	-3.5714
C	1.7398	-8.6081	-0.6964
C	2.0467	-10.0763	-1.0413
C	-0.0131	-8.9422	1.6054
N	0.6456	-8.0647	2.5754
C	-2.7997	-8.0190	1.4842
C	-3.5535	-9.3520	1.6338
C	6.0174	3.6376	-4.9668
N	6.0212	2.9738	-3.6638
C	4.8882	3.1468	-5.8635
C	3.6907	3.8848	-5.9484
C	2.6756	3.4628	-6.8347
C	2.8283	2.2809	-7.5846
C	4.0336	1.5484	-7.4954
C	5.0562	1.9656	-6.6192
C	6.3335	1.1553	-6.4912
C	7.4253	1.5729	-7.4919
C	4.2152	0.3165	-8.3671
N	3.7110	-0.9769	-7.8982
C	1.7060	1.7938	-8.4852
C	1.7655	2.3639	-9.9132
C	1.4238	4.3094	-6.9925
N	0.4227	4.0606	-5.9541
C	3.4752	5.1253	-5.0981
C	3.9700	6.4251	-5.7558
C	2.7869	3.5133	8.1029
N	1.5292	3.9888	7.5225
C	3.5791	2.4161	7.4077
C	3.2378	1.0644	7.6406
C	4.0220	0.0384	7.0740
C	5.1019	0.3564	6.2208
C	5.4243	1.7081	5.9780
C	4.6615	2.7419	6.5648
C	5.0264	4.1939	6.3139
C	6.0129	4.7537	7.3547
C	6.6117	2.0627	5.0902
N	6.1929	2.5311	3.7706
C	5.9248	-0.7589	5.6000
C	7.1663	-1.1320	6.4279
C	3.7370	-1.4165	7.4137
N	2.9438	-2.1212	6.4024
C	2.0389	0.7258	8.5103
C	2.3867	0.5422	9.9988
C	-4.7498	-2.8601	-0.2906
C	-5.4425	-3.9574	0.2498
C	-5.0387	-5.3363	-0.0355
C	-6.5828	-3.7166	1.0599
O	-7.2375	-4.8209	1.5515
C	-8.3728	-4.5913	2.3894
C	-6.9989	-2.4100	1.2918
C	-6.3197	-1.3133	0.7408
C	-6.8519	0.0422	0.9481
C	-5.1694	-1.5478	-0.0555
O	-4.5491	-0.4357	-0.5681
C	-3.4319	-0.6348	-1.4384
C	-1.7061	3.5327	-4.0708
C	-1.9221	3.8932	-5.4107
C	-0.8009	4.0237	-6.3445
C	-3.2410	4.1927	-5.8373
O	-3.3978	4.5328	-7.1599
C	-4.7240	4.8276	-7.6085
C	-4.2809	4.1790	-4.9123
C	-4.0629	3.8518	-3.5649
C	-5.1626	3.9939	-2.5959
C	-2.7560	3.4882	-3.1526
O	-2.6068	3.1328	-1.8321
C	-1.2805	2.8728	-1.3657
C	-1.0401	4.7213	6.6136
C	-0.1248	4.0390	5.7978
C	1.1648	3.5989	6.3546
C	-0.4801	3.7688	4.4522
O	0.4651	3.1234	3.6952
C	0.1474	2.8587	2.3284
C	-1.7292	4.1628	3.9712
C	-2.6491	4.8332	4.7946
C	-3.9722	5.2123	4.2947
C	-2.2854	5.1219	6.1356
O	-3.2113	5.8013	6.8923
C	-2.8578	6.1057	8.2442
C	2.1702	-3.8663	-4.3538
C	1.8029	-4.8674	-5.2681
C	1.2196	-6.1293	-4.8072
C	1.9910	-4.6346	-6.6546
O	1.6507	-5.6636	-7.5012
C	1.8184	-5.4451	-8.9040
C	2.5091	-3.4157	-7.0859
C	2.8600	-2.4070	-6.1752
C	3.3771	-1.1207	-6.6658
C	2.6967	-2.6496	-4.7874
O	3.0924	-1.6409	-3.9454
C	2.9509	-1.8540	-2.5396
C	1.5836	-3.6980	4.3824
C	2.5457	-4.2217	5.2635
C	3.2595	-3.3519	6.2017
C	2.8222	-5.6140	5.2291
O	3.7524	-6.0852	6.1250
C	4.0152	-7.4905	6.1270
C	2.1540	-6.4261	4.3168
C	1.2056	-5.9020	3.4263
C	0.5406	-6.7899	2.4610
C	0.9122	-4.5161	3.4730
O	-0.0528	-4.0749	2.6040
C	-0.3918	-2.6866	2.6372
C	5.8070	3.5718	1.1359
C	6.2835	2.2733	1.3782
C	6.5628	1.8417	2.7523
C	6.5483	1.4214	0.2755
O	6.9799	0.1523	0.5697
C	7.2358	-0.7282	-0.5293
C	6.3762	1.8999	-1.0220
C	5.9435	3.2128	-1.2633
C	5.8830	3.7283	-2.6331
C	5.6319	4.0496	-0.1613
O	5.1728	5.3101	-0.4585
C	4.9173	6.1915	0.6397
H	-5.5897	6.6011	2.3520
H	-6.2875	5.6680	3.6659
H	-5.9775	3.3822	4.0188
H	-6.9512	1.9841	3.6510
H	-7.9708	3.2940	5.5229
H	-8.0751	4.7384	4.4918
H	-9.0653	3.3239	4.1213
H	-9.5209	1.4943	1.1700
H	-8.8318	1.6482	2.7502
H	-8.1044	2.3377	-2.1092
H	-8.5717	1.2481	-0.8303
H	-10.5959	2.0850	-2.0199
H	-10.1613	3.7687	-1.6458
H	-10.6194	2.6699	-0.3413
H	-7.4620	5.8962	-2.0097
H	-8.2566	4.4176	-2.4307
H	-4.8122	6.4939	0.4662
H	-5.4619	6.2772	-1.1363
H	-6.0815	8.5321	-0.2733
H	-6.9002	7.8067	1.1296
H	-7.5544	7.5596	-0.4918
H	-4.2710	-7.3213	-2.0900
H	-4.5188	-7.6878	-0.3882
H	-2.9300	-6.1033	-3.2197
H	-1.3900	-6.3629	-3.9937
H	-3.6175	-8.4950	-3.7908
H	-3.1925	-7.5612	-5.2430
H	-2.0521	-8.7470	-4.5679
H	1.4379	-8.4901	-3.1462
H	0.0303	-8.1689	-4.1478
H	2.3264	-7.9443	-1.3471
H	2.0918	-8.3942	0.3223
H	3.1210	-10.2883	-0.9430
H	1.7460	-10.3212	-2.0701
H	1.5034	-10.7655	-0.3793
H	0.7145	-9.7331	1.3720
H	-0.8034	-9.4690	2.1633
H	-3.5206	-7.1904	1.4714
H	-2.1868	-7.8457	2.3799
H	-4.1687	-9.3573	2.5449
H	-4.2149	-9.5363	0.7754
H	-2.8568	-10.2006	1.6892
H	5.9780	4.7361	-4.8647
H	6.9814	3.4096	-5.4455
H	6.7139	1.2413	-5.4644
H	6.1062	0.0880	-6.6259
H	8.3318	0.9639	-7.3648
H	7.0828	1.4591	-8.5303
H	7.7062	2.6281	-7.3629
H	3.7519	0.4833	-9.3506
H	5.2804	0.1611	-8.5994
H	1.7224	0.6961	-8.5304
H	0.7377	2.0464	-8.0310
H	0.9370	1.9800	-10.5256
H	2.7076	2.0959	-10.4123
H	1.7062	3.4614	-9.9111
H	1.7046	5.3709	-6.9083
H	0.9979	4.1954	-8.0044
H	2.4069	5.2127	-4.8588
H	3.9718	4.9980	-4.1276
H	5.0485	6.3851	-5.9655
H	3.7817	7.2919	-5.1062
H	3.4667	6.6074	-6.7163
H	2.5390	3.1991	9.1285
H	3.4104	4.4082	8.2471
H	4.1146	4.8083	6.3069
H	5.4493	4.2916	5.3058
H	5.5989	4.7019	8.3719
H	6.9521	4.1820	7.3634
H	6.2590	5.8038	7.1412
H	7.1706	2.8892	5.5572
H	7.3161	1.2180	5.0183
H	5.2976	-1.6476	5.4616
H	6.2329	-0.4735	4.5848
H	7.8434	-0.2741	6.5467
H	7.7293	-1.9473	5.9511
H	6.8850	-1.4599	7.4387
H	3.1599	-1.4581	8.3479
H	4.6844	-1.9471	7.6281
H	1.2802	1.5139	8.4124
H	1.5560	-0.1841	8.1270
H	3.1115	-0.2712	10.1472
H	2.8391	1.4517	10.4189
H	1.4884	0.3071	10.5873
H	-3.8852	-3.0850	-0.9129
H	-5.6019	-6.1142	0.5088
H	-8.7246	-5.5847	2.6880
H	-8.1007	-4.0120	3.2862
H	-9.1746	-4.0661	1.8460
H	-7.8825	-2.1801	1.8837
H	-6.2678	0.8782	0.5341
H	-3.7108	-1.2321	-2.3211
H	-2.5973	-1.1302	-0.9150
H	-3.1286	0.3693	-1.7551
H	-0.6795	3.3117	-3.7842
H	-1.0704	4.1376	-7.4090
H	-4.6331	5.0388	-8.6793
H	-5.3990	3.9700	-7.4579
H	-5.1357	5.7103	-7.0935
H	-5.2965	4.4631	-5.1803
H	-4.9628	3.6785	-1.5602
H	-0.8246	2.0181	-1.8920
H	-0.6323	3.7563	-1.4825
H	-1.3876	2.6324	-0.3024
H	-0.7230	4.9138	7.6366
H	1.7717	2.9202	5.7356
H	-0.0511	3.7907	1.7740
H	-0.7255	2.1904	2.2397
H	1.0314	2.3650	1.9101
H	-2.0441	3.9643	2.9483
H	-4.6806	5.5746	5.0607
H	-3.7164	6.6439	8.6596
H	-1.9635	6.7474	8.2903
H	-2.6794	5.1900	8.8305
H	2.0187	-4.0882	-3.2989
H	0.7896	-6.7732	-5.5946
H	1.1995	-4.6048	-9.2581
H	1.4897	-6.3707	-9.3885
H	2.8731	-5.2518	-9.1574
H	2.6645	-3.1921	-8.1395
H	3.4489	-0.3042	-5.9309
H	3.5451	-2.7186	-2.2014
H	1.8966	-2.0091	-2.2578
H	3.3264	-0.9408	-2.0646
H	1.3911	-2.6285	4.4482
H	4.0987	-3.8241	6.7427
H	3.1056	-8.0686	6.3549
H	4.7581	-7.6499	6.9159
H	4.4273	-7.8259	5.1615
H	2.3360	-7.4970	4.2530
H	-0.0313	-6.3083	1.6528
H	-1.1845	-2.5595	1.8916
H	0.4721	-2.0546	2.3734
H	-0.7698	-2.3888	3.6283
H	5.6066	4.1868	2.0110
H	7.1409	0.9074	2.8585
H	7.5441	-1.6783	-0.0805
H	8.0439	-0.3458	-1.1732
H	6.3300	-0.8852	-1.1372
H	6.5973	1.2921	-1.8972
H	5.7416	4.8188	-2.7283
H	4.5840	7.1332	0.1907
H	4.1252	5.7974	1.2962
H	5.8287	6.3684	1.2330
