120

C	-4.8775	2.8738	0.6240
N	-3.6200	3.6069	0.7756
C	-4.8381	1.3896	0.3023
C	-4.8195	0.9635	-1.0432
C	-4.8412	-0.4158	-1.3412
C	-4.8288	-1.3684	-0.2996
C	-4.8399	-0.9354	1.0437
C	-4.8188	0.4427	1.3487
C	-4.7951	0.9039	2.7957
C	-6.1986	1.0877	3.4003
C	-4.8765	-1.9574	2.1655
N	-3.6172	-2.4624	2.7125
C	-4.8291	-2.8522	-0.6246
C	-6.2456	-3.4387	-0.7620
C	-4.8797	-0.8776	-2.7879
N	-3.6229	-1.1114	-3.5009
C	-4.7933	1.9865	-2.1649
C	-6.1967	2.4097	-2.6325
C	4.8741	-0.9145	-2.7825
N	3.6155	-1.1434	-3.4922
C	4.8362	-0.4484	-1.3385
C	4.8126	0.9320	-1.0460
C	4.8379	1.3618	0.2980
C	4.8301	0.4181	1.3471
C	4.8436	-0.9610	1.0469
C	4.8198	-1.3982	-0.2947
C	4.7833	-2.8836	-0.6133
C	6.1792	-3.5185	-0.7400
C	4.8791	-1.9775	2.1734
N	3.6185	-2.4616	2.7356
C	4.8195	0.8859	2.7918
C	6.2287	1.0827	3.3779
C	4.8748	2.8468	0.6141
N	3.6173	3.5780	0.7690
C	4.7716	1.9517	-2.1709
C	6.1668	2.3922	-2.6485
C	-1.2182	-3.4955	3.8483
C	-0.0037	-3.9546	4.3500
Br	-0.0095	-5.2503	5.7637
C	1.2141	-3.4993	3.8540
C	1.2204	-2.5508	2.8160
C	2.4978	-2.0573	2.2695
C	0.0017	-2.0830	2.3011
C	-1.2205	-2.5468	2.8105
C	-2.4945	-2.0458	2.2631
C	-1.2145	-1.5784	-4.9629
C	0.0028	-1.7991	-5.6011
Br	0.0045	-2.3819	-7.4280
C	1.2177	-1.6074	-4.9502
C	1.2189	-1.1771	-3.6118
C	2.4940	-0.9543	-2.9067
C	-0.0021	-0.9546	-2.9575
C	-1.2220	-1.1530	-3.6226
C	-2.4986	-0.9219	-2.9199
C	1.2252	5.0829	1.1134
C	0.0138	5.7547	1.2486
Br	0.0266	7.6286	1.6550
C	-1.2074	5.1039	1.0969
C	-1.2205	3.7293	0.8017
C	-2.4966	3.0090	0.6446
C	-0.0047	3.0427	0.6623
C	1.2202	3.7093	0.8141
C	2.4920	2.9795	0.6580
H	-5.4418	3.0520	1.5516
H	-5.4515	3.4184	-0.1404
H	-4.2372	1.8474	2.8752
H	-4.2286	0.1845	3.4036
H	-6.7804	1.8347	2.8421
H	-6.1357	1.4185	4.4462
H	-6.7726	0.1508	3.3741
H	-5.4402	-1.5660	3.0255
H	-5.4490	-2.8457	1.8600
H	-4.2691	-3.0285	-1.5536
H	-4.2786	-3.4035	0.1503
H	-6.8207	-3.3173	0.1668
H	-6.8126	-2.9346	-1.5573
H	-6.2062	-4.5107	-1.0000
H	-5.4444	-0.1629	-3.4051
H	-5.4534	-1.8118	-2.8790
H	-4.2299	1.5852	-3.0190
H	-4.2321	2.8750	-1.8436
H	-6.1346	3.1506	-3.4416
H	-6.7724	1.5498	-3.0027
H	-6.7764	2.8524	-1.8104
H	5.4419	-0.2035	-3.4013
H	5.4437	-1.8517	-2.8704
H	4.2227	-3.0483	-1.5441
H	4.2116	-3.4128	0.1621
H	6.7560	-3.4085	0.1891
H	6.1037	-4.5907	-0.9680
H	6.7652	-3.0417	-1.5383
H	5.4335	-2.8766	1.8655
H	5.4595	-1.5904	3.0241
H	4.2645	0.1670	3.4105
H	4.2567	1.8264	2.8721
H	6.8075	0.1487	3.3514
H	6.7995	1.8289	2.8074
H	6.1764	1.4206	4.4221
H	5.4430	3.3896	-0.1557
H	5.4438	3.0306	1.5376
H	4.2014	2.8342	-1.8488
H	4.2089	1.5417	-3.0213
H	6.0893	3.1288	-3.4601
H	6.7520	1.5388	-3.0191
H	6.7459	2.8462	-1.8321
H	-2.1710	-3.8520	4.2367
H	2.1648	-3.8572	4.2459
H	2.4236	-1.3282	1.4406
H	0.0049	-1.3467	1.4928
H	-2.4161	-1.2976	1.4515
H	-2.1650	-1.7293	-5.4723
H	2.1704	-1.7775	-5.4492
H	2.4181	-0.6159	-1.8559
H	-0.0031	-0.6217	-1.9160
H	-2.4204	-0.5804	-1.8703
H	2.1804	5.5923	1.2305
H	-2.1555	5.6288	1.2032
H	-2.4193	1.9299	0.4128
H	-0.0125	1.9740	0.4316
H	2.4100	1.8979	0.4390
