304

C	-0.1242	2.2918	-9.5798
N	0.7041	1.5978	-8.5974
C	-1.5526	2.4364	-9.0702
C	-1.9714	3.6385	-8.4606
C	-3.3032	3.7609	-8.0122
C	-4.1909	2.6666	-8.0981
C	-3.7560	1.4653	-8.6941
C	-2.4345	1.3415	-9.1728
C	-1.9641	0.0353	-9.7861
C	-2.2057	-0.0382	-11.3035
C	-4.6945	0.2666	-8.7823
N	-4.4192	-0.6662	-7.6934
C	-5.5981	2.7921	-7.5429
C	-6.6253	3.2607	-8.5878
C	-3.7865	5.0678	-7.3955
N	-3.7539	5.0081	-5.9365
C	-0.9912	4.7832	-8.2718
C	-0.9494	5.7707	-9.4497
C	5.6310	-7.6527	-2.1268
N	5.6070	-6.1942	-2.1975
C	4.5599	-8.1758	-1.1769
C	4.8096	-8.1730	0.2123
C	3.8400	-8.6919	1.0932
C	2.6113	-9.1771	0.5967
C	2.3631	-9.1570	-0.7914
C	3.3229	-8.6280	-1.6811
C	3.0274	-8.5433	-3.1676
C	3.4492	-9.7966	-3.9514
C	1.0318	-9.6787	-1.3212
N	-0.0086	-8.6618	-1.1982
C	1.5654	-9.7217	1.5508
C	1.7240	-11.2311	1.8073
C	4.0909	-8.6861	2.5976
N	3.4347	-7.5331	3.2055
C	6.1176	-7.6122	0.7392
C	7.2178	-8.6767	0.8871
C	-5.5672	-0.7964	8.0526
N	-4.1666	-0.7008	7.6560
C	-6.4736	-0.3041	6.9306
C	-7.0736	-1.2262	6.0464
C	-7.9261	-0.7535	5.0270
C	-8.1225	0.6326	4.8426
C	-7.5025	1.5447	5.7210
C	-6.6666	1.0817	6.7596
C	-5.9765	2.0678	7.6843
C	-6.8159	2.4134	8.9274
C	-7.6879	3.0454	5.5263
N	-6.5458	3.5973	4.8035
C	-9.0018	1.1238	3.7061
C	-10.4711	1.3184	4.1183
C	-8.6251	-1.7389	4.0978
N	-7.9007	-1.8921	2.8388
C	-6.7951	-2.7122	6.1903
C	-7.7630	-3.4338	7.1422
C	6.8085	4.3594	5.4423
N	6.0702	3.1070	5.3164
C	6.6795	5.2036	4.1804
C	7.4922	4.9093	3.0640
C	7.4008	5.7106	1.9080
C	6.4797	6.7782	1.8501
C	5.6609	7.0522	2.9644
C	5.7351	6.2497	4.1226
C	4.8009	6.5042	5.2922
C	5.3516	7.5082	6.3182
C	4.6528	8.1923	2.8838
N	3.4628	7.7628	2.1562
C	6.3718	7.6270	0.5970
C	7.3154	8.8424	0.6160
C	8.2627	5.4021	0.6893
N	7.4980	4.6318	-0.2894
C	8.4519	3.7339	3.1200
C	9.8563	4.1191	3.6140
C	-3.9282	-2.3459	-5.3812
C	-3.7661	-3.1448	-4.2592
C	-4.8804	-3.5183	-3.4789
C	-6.1583	-3.0754	-3.8617
C	-6.3094	-2.2614	-4.9815
C	-5.2035	-1.8818	-5.7615
C	-5.3836	-0.9970	-6.9168
N	-4.7120	-4.3058	-2.3097
C	-3.7388	-5.3375	-2.2806
C	-2.9466	-5.5397	-1.1308
C	-1.9771	-6.5310	-1.1091
C	-1.7514	-7.3498	-2.2336
C	-0.7042	-8.3763	-2.2366
C	-2.5432	-7.1410	-3.3763
C	-3.5296	-6.1588	-3.4026
C	-5.4474	-3.9934	-1.1360
C	-5.6740	-2.6513	-0.7652
C	-6.3729	-2.3507	0.3950
C	-6.8644	-3.3740	1.2304
C	-7.5937	-3.0807	2.4674
C	-6.6316	-4.7091	0.8546
C	-5.9428	-5.0204	-0.3143
C	2.3385	0.4054	-6.5178
C	3.1800	-0.1197	-5.5487
C	4.4213	0.4903	-5.2707
C	4.7936	1.6360	-5.9958
C	3.9327	2.1684	-6.9514
C	2.6948	1.5655	-7.2338
C	1.8017	2.1527	-8.2357
N	5.2665	-0.0223	-4.2536
C	5.9522	0.8738	-3.3911
C	5.3253	2.0549	-2.9424
C	5.9845	2.9183	-2.0809
C	7.2861	2.6295	-1.6244
C	7.9820	3.5118	-0.6826
C	7.9048	1.4503	-2.0756
C	7.2565	0.5861	-2.9543
C	5.3476	-1.4203	-4.0261
C	5.3946	-2.3180	-5.1067
C	5.4462	-3.6891	-4.8730
C	5.4701	-4.2062	-3.5659
C	5.5198	-5.6549	-3.3575
C	5.4326	-3.2994	-2.4878
C	5.3668	-1.9322	-2.7111
C	-3.5164	4.9772	-3.0285
C	-3.3865	5.0508	-1.6495
C	-2.7401	6.1520	-1.0489
C	-2.2234	7.1695	-1.8704
C	-2.3452	7.0789	-3.2540
C	-2.9970	5.9899	-3.8593
C	-3.1138	5.9314	-5.3182
N	-2.5966	6.2257	0.3610
C	-1.3737	6.6698	0.9273
C	-0.1424	6.3380	0.3236
C	1.0531	6.7515	0.8913
C	1.0662	7.4948	2.0882
C	2.3204	7.9195	2.7151
C	-0.1636	7.8162	2.6871
C	-1.3696	7.4250	2.1133
C	-3.6332	5.7475	1.2047
C	-4.9812	6.0008	0.8968
C	-5.9890	5.4992	1.7161
C	-5.6883	4.7523	2.8680
C	-6.7664	4.2196	3.7050
C	-4.3343	4.5109	3.1731
C	-3.3240	4.9925	2.3549
C	4.3916	-4.6765	5.2956
C	3.8824	-3.5118	5.8641
C	2.5558	-3.1254	5.6079
C	1.7509	-3.9389	4.7832
C	2.2609	-5.1060	4.2371
C	3.5931	-5.4956	4.4796
C	4.1495	-6.7111	3.8808
N	2.0383	-1.9238	6.1566
C	2.8399	-0.7535	6.1786
C	2.7747	0.1347	7.2660
C	3.5435	1.2953	7.2665
C	4.4103	1.5947	6.2009
C	5.2147	2.8184	6.2263
C	4.4743	0.6948	5.1186
C	3.7004	-0.4553	5.1019
C	0.6859	-1.8653	6.5808
C	0.1034	-2.9533	7.2545
C	-1.2369	-2.9069	7.6270
C	-2.0260	-1.7730	7.3671
C	-3.4348	-1.7472	7.7669
C	-1.4298	-0.6810	6.7055
C	-0.1014	-0.7260	6.3118
H	0.3004	3.2705	-9.8664
H	-0.1295	1.6812	-10.4955
H	-0.8970	-0.1046	-9.5695
H	-2.4695	-0.8010	-9.2856
H	-3.2731	0.0651	-11.5478
H	-1.8564	-0.9971	-11.7127
H	-1.6792	0.7681	-11.8351
H	-4.5144	-0.2665	-9.7280
H	-5.7516	0.5855	-8.8027
H	-5.9169	1.8266	-7.1271
H	-5.5902	3.4794	-6.6871
H	-7.6280	3.3495	-8.1453
H	-6.3524	4.2404	-9.0061
H	-6.6856	2.5591	-9.4322
H	-4.8328	5.2386	-7.6920
H	-3.2140	5.9270	-7.7882
H	0.0148	4.3782	-8.0984
H	-1.2349	5.3256	-7.3485
H	-1.9347	6.2265	-9.6224
H	-0.2274	6.5793	-9.2643
H	-0.6626	5.2650	-10.3827
H	6.6215	-7.9454	-1.7463
H	5.5383	-8.1175	-3.1246
H	3.5243	-7.6606	-3.5918
H	1.9552	-8.3594	-3.3193
H	4.5276	-9.9847	-3.8508
H	2.9323	-10.6918	-3.5775
H	3.2197	-9.6926	-5.0219
H	0.7187	-10.5432	-0.7163
H	1.1315	-10.0501	-2.3571
H	0.5638	-9.5117	1.1532
H	1.6176	-9.1723	2.4998
H	0.9545	-11.5974	2.5020
H	1.6411	-11.8086	0.8749
H	2.7086	-11.4642	2.2383
H	5.1714	-8.7208	2.8232
H	3.6524	-9.5914	3.0437
H	6.4592	-6.8060	0.0772
H	5.9470	-7.1272	1.7097
H	8.1524	-8.2322	1.2586
H	6.9156	-9.4700	1.5858
H	7.4345	-9.1646	-0.0742
H	-5.8418	-1.8173	8.3728
H	-5.7047	-0.1523	8.9345
H	-5.7394	2.9828	7.1260
H	-5.0048	1.6587	7.9904
H	-7.7825	2.8586	8.6495
H	-7.0391	1.5177	9.5252
H	-6.2873	3.1284	9.5740
H	-8.6471	3.2694	5.0270
H	-7.7283	3.5376	6.5096
H	-8.9354	0.4211	2.8655
H	-8.6049	2.0701	3.3145
H	-11.0789	1.6639	3.2696
H	-10.9096	0.3806	4.4891
H	-10.5645	2.0559	4.9283
H	-8.7893	-2.7082	4.6021
H	-9.6259	-1.3517	3.8528
H	-5.7629	-2.8590	6.5362
H	-6.8282	-3.1910	5.2027
H	-7.5202	-4.5034	7.2207
H	-7.7261	-3.0007	8.1518
H	-8.8021	-3.3449	6.7941
H	7.8676	4.1001	5.5934
H	6.5047	4.9334	6.3359
H	4.5729	5.5550	5.7948
H	3.8317	6.8592	4.9167
H	5.5496	8.4841	5.8524
H	4.6427	7.6620	7.1447
H	6.3026	7.1588	6.7450
H	5.0977	9.0288	2.3239
H	4.4103	8.5878	3.8862
H	5.3334	7.9604	0.4717
H	6.5800	7.0045	-0.2829
H	7.1055	9.5023	1.4704
H	8.3673	8.5335	0.7049
H	7.2136	9.4363	-0.3036
H	9.1992	4.8940	0.9796
H	8.5603	6.3456	0.2073
H	8.5286	3.2730	2.1259
H	8.0280	2.9513	3.7626
H	10.5174	3.2413	3.6538
H	10.3209	4.8667	2.9551
H	9.8198	4.5607	4.6204
H	-3.0665	-2.0355	-5.9727
H	-2.7712	-3.4752	-3.9611
H	-7.0259	-3.3634	-3.2682
H	-7.3077	-1.9175	-5.2621
H	-6.4145	-0.6152	-7.0727
H	-3.0927	-4.8979	-0.2621
H	-1.3497	-6.6759	-0.2291
H	-0.5421	-8.8934	-3.2060
H	-2.3892	-7.7673	-4.2581
H	-4.1384	-6.0137	-4.2949
H	-5.2828	-1.8509	-1.3933
H	-6.5349	-1.3146	0.6938
H	-7.8733	-3.9670	3.0754
H	-7.0097	-5.5175	1.4847
H	-5.7748	-6.0598	-0.5958
H	1.3703	-0.0528	-6.7218
H	2.8794	-1.0007	-4.9818
H	5.7524	2.1123	-5.7921
H	4.2310	3.0647	-7.5002
H	2.1331	3.1218	-8.6649
H	4.3093	2.2763	-3.2690
H	5.4961	3.8222	-1.7160
H	8.9633	3.1422	-0.3175
H	8.9160	1.2116	-1.7381
H	7.7497	-0.3224	-3.2995
H	5.3849	-1.9318	-6.1258
H	5.4821	-4.3758	-5.7218
H	5.4765	-6.2706	-4.2807
H	5.4302	-3.6981	-1.4729
H	5.3177	-1.2409	-1.8699
H	-4.0030	4.1207	-3.4961
H	-3.7759	4.2519	-1.0186
H	-1.7238	8.0246	-1.4155
H	-1.9394	7.8767	-3.8803
H	-2.6105	6.7545	-5.8682
H	-0.1385	5.7399	-0.5875
H	2.0075	6.4840	0.4368
H	2.2215	8.3913	3.7156
H	-0.1745	8.3966	3.6125
H	-2.3158	7.6889	2.5852
H	-5.2293	6.5837	0.0100
H	-7.0329	5.6992	1.4637
H	-7.7960	4.3774	3.3207
H	-4.1005	3.9113	4.0533
H	-2.2810	4.7794	2.5885
H	5.4257	-4.9645	5.4982
H	4.5089	-2.8894	6.5027
H	0.7263	-3.6345	4.5698
H	1.6501	-5.7303	3.5846
H	5.2356	-6.8757	4.0410
H	2.1130	-0.0892	8.1025
H	3.4825	1.9781	8.1172
H	5.0405	3.4892	7.0941
H	5.1298	0.9367	4.2815
H	3.7440	-1.1342	4.2503
H	0.7051	-3.8359	7.4700
H	-1.6791	-3.7617	8.1441
H	-3.8370	-2.6988	8.1743
H	-2.0469	0.1904	6.4849
H	0.3412	0.1147	5.7779
