304

C	7.6253	5.9952	1.7182
N	7.3239	4.6984	1.1180
C	6.3623	6.8393	1.8334
C	5.6501	6.8902	3.0509
C	4.4936	7.6924	3.1442
C	4.0040	8.3772	2.0110
C	4.7150	8.3052	0.7958
C	5.8895	7.5294	0.6988
C	6.6333	7.4323	-0.6206
C	7.6980	8.5292	-0.7930
C	4.1944	9.0249	-0.4437
N	3.4699	8.0891	-1.2988
C	2.7168	9.1757	2.1106
C	2.9435	10.6532	2.4742
C	3.7392	7.7977	4.4640
N	2.5926	6.8935	4.4915
C	6.1143	6.0734	4.2442
C	7.1018	6.8132	5.1617
C	4.9168	-3.7406	-7.5251
N	4.9910	-3.5795	-6.0756
C	3.5024	-3.4911	-8.0353
C	2.5434	-4.5223	-7.9406
C	1.2452	-4.3121	-8.4466
C	0.8918	-3.0676	-9.0105
C	1.8513	-2.0366	-9.0822
C	3.1508	-2.2331	-8.5671
C	4.1619	-1.1009	-8.5822
C	5.0139	-1.0535	-9.8608
C	1.4619	-0.6928	-9.6887
N	0.7603	0.1330	-8.7101
C	-0.5113	-2.8421	-9.5409
C	-0.6540	-3.2254	-11.0247
C	0.1950	-5.4132	-8.3421
N	-0.6596	-5.1751	-7.1835
C	2.9220	-5.8431	-7.2963
C	3.4422	-6.8822	-8.3040
C	-9.7968	-0.4379	-0.5516
N	-8.6353	-1.3110	-0.4216
C	-9.4353	0.9911	-0.1639
C	-9.1105	1.9365	-1.1603
C	-8.7990	3.2596	-0.7839
C	-8.7393	3.6215	0.5796
C	-9.0476	2.6629	1.5666
C	-9.3842	1.3421	1.2003
C	-9.6856	0.3051	2.2667
C	-11.1756	0.2535	2.6497
C	-8.9704	3.0300	3.0443
N	-7.6941	2.5897	3.5996
C	-8.3499	5.0374	0.9665
C	-9.5586	5.9758	1.1241
C	-8.4993	4.3066	-1.8502
N	-7.0616	4.4726	-2.0470
C	-9.0908	1.5266	-2.6225
C	-10.4491	1.6791	-3.3263
C	-0.1534	-8.3942	4.9490
N	-0.5247	-7.8153	3.6620
C	0.7953	-7.4776	5.7117
C	2.1691	-7.4771	5.3862
C	3.0549	-6.6568	6.1137
C	2.5705	-5.8144	7.1371
C	1.1942	-5.8102	7.4420
C	0.2964	-6.6181	6.7126
C	-1.1939	-6.5562	6.9965
C	-1.6598	-7.5416	8.0810
C	0.6773	-4.8798	8.5327
N	0.5329	-3.5239	8.0125
C	3.5250	-4.9195	7.9057
C	4.1043	-5.6006	9.1580
C	4.5397	-6.6353	5.7701
N	4.8441	-5.4916	4.9127
C	2.6757	-8.3565	4.2567
C	3.1347	-9.7466	4.7279
C	1.8819	6.1974	-2.8182
C	1.0659	5.3414	-3.5424
C	-0.2359	5.7372	-3.9152
C	-0.6892	7.0162	-3.5487
C	0.1321	7.8633	-2.8088
C	1.4286	7.4743	-2.4303
C	2.2623	8.3706	-1.6230
N	-1.0855	4.8485	-4.6250
C	-0.5460	3.9842	-5.6121
C	-0.9921	2.6496	-5.7136
C	-0.4480	1.7955	-6.6610
C	0.5675	2.2332	-7.5344
C	1.1772	1.3295	-8.5151
C	1.0083	3.5637	-7.4259
C	0.4576	4.4335	-6.4885
C	-2.4582	4.7534	-4.2749
C	-2.8610	4.8037	-2.9239
C	-4.2012	4.6866	-2.5848
C	-5.1866	4.5083	-3.5767
C	-6.6066	4.3689	-3.2416
C	-4.7759	4.4565	-4.9208
C	-3.4351	4.5860	-5.2715
C	6.6202	2.0672	0.1183
C	6.3410	0.7794	-0.3138
C	6.8792	-0.3357	0.3622
C	7.7076	-0.1199	1.4778
C	7.9645	1.1757	1.9171
C	7.4319	2.2912	1.2481
C	7.7076	3.6441	1.7380
N	6.5643	-1.6543	-0.0544
C	6.3079	-2.6569	0.9184
C	5.5985	-2.3448	2.0969
C	5.3263	-3.3279	3.0359
C	5.7384	-4.6595	2.8285
C	5.4245	-5.7186	3.7925
C	6.4449	-4.9632	1.6513
C	6.7374	-3.9787	0.7110
C	6.4006	-1.9508	-1.4321
C	7.2719	-1.4023	-2.3889
C	7.0860	-1.6771	-3.7406
C	6.0453	-2.5146	-4.1787
C	5.8767	-2.7781	-5.6094
C	5.1819	-3.0687	-3.2125
C	5.3508	-2.7890	-1.8646
C	0.4127	4.9597	4.6412
C	-0.6086	4.0349	4.8010
C	-0.6750	3.2346	5.9613
C	0.3143	3.3841	6.9493
C	1.3438	4.3040	6.7726
C	1.4109	5.1123	5.6239
C	2.5043	6.0755	5.4751
N	-1.7129	2.2805	6.1236
C	-1.4195	0.9960	6.6502
C	-0.2041	0.3527	6.3347
C	0.0710	-0.9128	6.8299
C	-0.8605	-1.5896	7.6421
C	-0.5971	-2.9367	8.1544
C	-2.0714	-0.9454	7.9470
C	-2.3474	0.3337	7.4733
C	-3.0207	2.5692	5.6533
C	-3.5802	3.8463	5.8321
C	-4.8518	4.1252	5.3383
C	-5.6072	3.1441	4.6733
C	-6.9359	3.4663	4.1466
C	-5.0416	1.8647	4.5065
C	-3.7699	1.5819	4.9805
C	-1.6899	-6.9956	-4.1720
C	-2.4244	-6.8504	-2.9980
C	-3.0094	-5.6123	-2.6824
C	-2.8530	-4.5316	-3.5756
C	-2.1360	-4.6910	-4.7505
C	-1.5367	-5.9257	-5.0699
C	-0.7507	-6.0938	-6.2945
N	-3.7323	-5.4460	-1.4731
C	-3.2418	-6.0188	-0.2714
C	-4.1296	-6.5575	0.6757
C	-3.6419	-7.0918	1.8651
C	-2.2630	-7.1245	2.1369
C	-1.7723	-7.6978	3.3922
C	-1.3801	-6.5885	1.1785
C	-1.8578	-6.0397	-0.0016
C	-4.8833	-4.6174	-1.4457
C	-5.7957	-4.6306	-2.5154
C	-6.8985	-3.7814	-2.5027
C	-7.1406	-2.9188	-1.4196
C	-8.3068	-2.0327	-1.4285
C	-6.2295	-2.9234	-0.3446
C	-5.1170	-3.7503	-0.3577
H	8.1313	5.8950	2.6952
H	8.3399	6.5063	1.0552
H	7.0993	6.4418	-0.7033
H	5.9112	7.4786	-1.4463
H	7.2533	9.5341	-0.7484
H	8.2137	8.4302	-1.7590
H	8.4570	8.4828	0.0018
H	5.0461	9.4114	-1.0235
H	3.5817	9.9022	-0.1706
H	2.1717	9.1149	1.1589
H	2.0534	8.7037	2.8467
H	1.9890	11.1940	2.5474
H	3.4634	10.7531	3.4381
H	3.5661	11.1592	1.7223
H	3.3503	8.8217	4.5737
H	4.4163	7.6350	5.3216
H	6.5721	5.1393	3.8920
H	5.2424	5.7516	4.8294
H	6.6570	7.7338	5.5654
H	7.4060	6.1815	6.0089
H	8.0082	7.1089	4.6144
H	5.2024	-4.7787	-7.7538
H	5.6475	-3.1006	-8.0512
H	4.8191	-1.1829	-7.7061
H	3.6421	-0.1422	-8.4519
H	5.5782	-1.9868	-9.9979
H	4.3846	-0.9263	-10.7531
H	5.7329	-0.2219	-9.8294
H	0.7715	-0.8645	-10.5284
H	2.3409	-0.1771	-10.1158
H	-0.7917	-1.7905	-9.3962
H	-1.2255	-3.4148	-8.9350
H	-1.6797	-3.0528	-11.3811
H	0.0279	-2.6401	-11.6589
H	-0.4110	-4.2850	-11.1912
H	0.6642	-6.4127	-8.3188
H	-0.4449	-5.3925	-9.2370
H	3.6739	-5.6639	-6.5170
H	2.0551	-6.2554	-6.7626
H	3.7177	-7.8200	-7.8002
H	2.6850	-7.1139	-9.0667
H	4.3294	-6.5124	-8.8381
H	-10.2402	-0.4803	-1.5623
H	-10.5694	-0.8125	0.1369
H	-9.0770	0.5129	3.1563
H	-9.3545	-0.6815	1.9168
H	-11.5254	1.2214	3.0375
H	-11.8070	0.0122	1.7822
H	-11.3581	-0.5067	3.4227
H	-9.1439	4.1096	3.1988
H	-9.7691	2.5067	3.5913
H	-7.6542	5.4400	0.2190
H	-7.7776	5.0200	1.9038
H	-9.2390	6.9928	1.3937
H	-10.1392	6.0394	0.1924
H	-10.2454	5.6154	1.9035
H	-9.0222	4.0693	-2.7942
H	-8.8972	5.2783	-1.5197
H	-8.7492	0.4859	-2.7060
H	-8.3326	2.1120	-3.1594
H	-10.3893	1.3653	-4.3786
H	-11.2235	1.0743	-2.8336
H	-10.7942	2.7227	-3.3010
H	0.3573	-9.3473	4.7430
H	-1.0371	-8.6480	5.5615
H	-1.7534	-6.7403	6.0698
H	-1.4694	-5.5338	7.2886
H	-1.1472	-7.3538	9.0352
H	-2.7428	-7.4607	8.2536
H	-1.4362	-8.5798	7.7968
H	1.4105	-4.8421	9.3526
H	-0.2603	-5.2599	8.9760
H	3.0077	-3.9934	8.1880
H	4.3390	-4.6010	7.2417
H	3.3104	-5.9001	9.8578
H	4.6593	-6.5142	8.8986
H	4.7905	-4.9279	9.6922
H	4.8600	-7.5911	5.3191
H	5.1244	-6.5195	6.6951
H	3.5055	-7.8536	3.7418
H	1.8903	-8.4569	3.4964
H	3.4812	-10.3577	3.8821
H	3.9569	-9.6713	5.4542
H	2.3189	-10.2902	5.2260
H	2.8795	5.8856	-2.5077
H	1.4191	4.3465	-3.8134
H	-1.6914	7.3331	-3.8369
H	-0.2369	8.8512	-2.5235
H	1.7750	9.3125	-1.2940
H	-1.7594	2.2896	-5.0284
H	-0.7765	0.7579	-6.7279
H	2.0375	1.7456	-9.0811
H	1.7912	3.9264	-8.0960
H	0.8070	5.4636	-6.4214
H	-2.1064	4.9226	-2.1462
H	-4.5144	4.7076	-1.5405
H	-7.2798	4.1671	-4.1016
H	-5.5243	4.3254	-5.7058
H	-3.1322	4.5498	-6.3178
H	6.1906	2.9305	-0.3907
H	5.6881	0.6193	-1.1717
H	8.1322	-0.9743	2.0044
H	8.6019	1.3277	2.7912
H	8.2711	3.7030	2.6931
H	5.2530	-1.3236	2.2566
H	4.7610	-3.0951	3.9387
H	5.7152	-6.7454	3.4858
H	6.7784	-5.9885	1.4749
H	7.2897	-4.2274	-0.1951
H	8.0883	-0.7575	-2.0640
H	7.7702	-1.2441	-4.4740
H	6.5743	-2.2325	-6.2794
H	4.3612	-3.7020	-3.5507
H	4.6648	-3.2066	-1.1278
H	0.4745	5.5695	3.7394
H	-1.3643	3.9130	4.0251
H	0.2705	2.7715	7.8495
H	2.1056	4.4101	7.5484
H	3.2645	6.0597	6.2846
H	0.5126	0.8546	5.6849
H	1.0022	-1.4202	6.5758
H	-1.4451	-3.4249	8.6796
H	-2.8041	-1.4515	8.5799
H	-3.2876	0.8238	7.7251
H	-3.0085	4.6154	6.3512
H	-5.2739	5.1229	5.4798
H	-7.2449	4.5286	4.2389
H	-5.6170	1.1099	3.9698
H	-3.3336	0.5953	4.8248
H	-1.2359	-7.9616	-4.4046
H	-2.5437	-7.6903	-2.3138
H	-3.2922	-3.5656	-3.3268
H	-1.9962	-3.8555	-5.4369
H	-0.2289	-7.0675	-6.4043
H	-5.2006	-6.5461	0.4741
H	-4.3428	-7.5062	2.5935
H	-2.5552	-8.0328	4.1050
H	-0.3120	-6.5933	1.3977
H	-1.1666	-5.6107	-0.7270
H	-5.6253	-5.3001	-3.3582
H	-7.5962	-3.7969	-3.3432
H	-8.8951	-2.0209	-2.3704
H	-6.4054	-2.2394	0.4861
H	-4.4058	-3.7260	0.4678
