336

C	-2.6221	0.0122	-10.8522
N	-1.6136	0.3860	-9.8626
C	-3.9228	-0.4206	-10.1857
C	-4.8434	0.5605	-9.7556
C	-6.0659	0.1597	-9.1798
C	-6.3554	-1.2105	-8.9969
C	-5.4224	-2.1820	-9.4124
C	-4.1900	-1.7896	-9.9831
C	-3.1645	-2.8442	-10.3632
C	-3.3124	-3.3548	-11.8072
C	-5.7039	-3.6581	-9.1941
N	-5.2484	-4.2689	-7.9356
C	-7.6658	-1.6338	-8.3583
C	-8.7949	-1.8253	-9.3863
C	-7.0644	1.2073	-8.7046
N	-6.8816	1.4676	-7.2774
C	-4.5035	2.0321	-9.9113
C	-5.0002	2.6362	-11.2368
C	9.3401	-6.3747	-1.2360
N	8.7230	-5.0940	-1.5797
C	8.5313	-7.0843	-0.1571
C	8.7450	-6.7556	1.1995
C	7.9874	-7.3991	2.1994
C	6.9894	-8.3359	1.8470
C	6.7957	-8.6692	0.4919
C	7.5448	-8.0250	-0.5178
C	7.2739	-8.3483	-1.9754
C	8.1409	-9.4990	-2.5157
C	5.7350	-9.6934	0.1045
N	4.4877	-9.0252	-0.2603
C	6.1272	-8.9625	2.9288
C	6.7005	-10.2736	3.4921
C	8.1865	-7.0431	3.6618
N	7.3711	-5.9575	4.2267
C	9.7802	-5.7103	1.5778
C	11.1819	-6.3040	1.8040
C	-5.2292	-0.5555	10.2139
N	-4.0579	-0.0782	9.4807
C	-6.3303	-0.9471	9.2352
C	-6.4381	-2.2815	8.7932
C	-7.4415	-2.6273	7.8608
C	-8.2985	-1.6396	7.3360
C	-8.1952	-0.3080	7.7993
C	-7.1974	0.0466	8.7296
C	-7.0443	1.4895	9.1770
C	-7.8583	1.8192	10.4404
C	-9.1235	0.7488	7.2276
N	-8.7162	1.4249	5.9864
C	-9.3236	-1.9860	6.2705
C	-10.6839	-2.4169	6.8447
C	-7.5625	-4.0709	7.3857
N	-6.5919	-4.3431	6.3283
C	-5.4928	-3.3495	9.3109
C	-6.0002	-4.0280	10.5953
C	5.4719	9.3302	3.6798
N	5.0879	8.0286	4.2472
C	5.0931	9.6119	2.2366
C	5.9875	9.3124	1.1897
C	5.6064	9.5603	-0.1474
C	4.3241	10.0661	-0.4427
C	3.4360	10.3674	0.6143
C	3.8037	10.1152	1.9507
C	2.8273	10.3706	3.0859
C	2.9123	11.7959	3.6572
C	2.0588	10.9411	0.3005
N	1.1186	9.8806	-0.0563
C	3.8847	10.2810	-1.8798
C	4.2344	11.6765	-2.4245
C	6.5746	9.2221	-1.2743
N	6.4671	7.8052	-1.6176
C	7.3518	8.7219	1.4968
C	8.4373	9.7921	1.7056
C	-6.7435	-5.4036	2.8209
C	-5.9467	-5.6520	1.7053
C	-4.5487	-5.5213	1.7786
C	-3.9788	-5.1283	3.0072
C	-4.7727	-4.8690	4.1168
C	-6.1713	-5.0073	4.0416
C	-7.0383	-4.7371	5.1938
C	-3.7001	-5.7843	0.5943
C	-4.0830	-5.3178	-0.6729
C	-3.2934	-5.5644	-1.8055
C	-2.1031	-6.2921	-1.6581
C	-1.6831	-6.7542	-0.3996
C	-2.4959	-6.4953	0.7164
C	-0.3912	-7.4622	-0.2398
C	-0.2467	-8.5301	0.6646
C	0.9880	-9.1515	0.8446
C	2.1199	-8.7293	0.1266
C	3.4217	-9.3641	0.3657
C	1.9766	-7.6716	-0.7905
C	0.7460	-7.0544	-0.9695
C	-3.7040	-5.0460	-3.1302
C	-3.7049	-5.8804	-4.2655
C	-4.1058	-5.3976	-5.5057
C	-4.4908	-4.0533	-5.6587
C	-4.9242	-3.5099	-6.9542
C	-4.4662	-3.2121	-4.5333
C	-4.0965	-3.7051	-3.2832
C	7.4422	-3.5692	-4.6594
C	6.7656	-2.4524	-5.1432
C	6.3929	-1.4066	-4.2804
C	6.7391	-1.5144	-2.9173
C	7.4102	-2.6292	-2.4313
C	7.7661	-3.6808	-3.2967
C	8.4308	-4.8951	-2.8113
C	5.6337	-0.2401	-4.7841
C	4.6118	-0.4157	-5.7310
C	3.8573	0.6711	-6.2007
C	4.1519	1.9543	-5.7130
C	5.1712	2.1623	-4.7691
C	5.9021	1.0541	-4.3115
C	5.4719	3.5250	-4.2730
C	5.8008	3.7506	-2.9190
C	6.0573	5.0303	-2.4434
C	5.9965	6.1384	-3.3095
C	6.2047	7.5113	-2.8365
C	5.6852	5.9175	-4.6612
C	5.4254	4.6345	-5.1358
C	2.7489	0.4601	-7.1605
C	2.8655	-0.4696	-8.2093
C	1.8125	-0.6779	-9.0973
C	0.6074	0.0327	-8.9661
C	-0.4887	-0.2261	-9.9062
C	0.4866	0.9672	-7.9207
C	1.5384	1.1746	-7.0375
C	-6.2511	4.4378	-5.2198
C	-5.9469	4.8430	-3.9228
C	-5.8213	3.9010	-2.8862
C	-6.0511	2.5427	-3.1910
C	-6.3536	2.1371	-4.4844
C	-6.4446	3.0799	-5.5256
C	-6.6947	2.6825	-6.9158
C	-5.4025	4.3119	-1.5268
C	-4.4211	5.3043	-1.3634
C	-3.9629	5.6770	-0.0906
C	-4.4939	5.0221	1.0322
C	-5.4798	4.0327	0.9008
C	-5.9353	3.6950	-0.3829
C	-6.0084	3.3432	2.1010
C	-5.1313	2.8291	3.0717
C	-5.6244	2.1649	4.1931
C	-7.0076	2.0274	4.3977
C	-7.4930	1.3513	5.6092
C	-7.8872	2.5487	3.4316
C	-7.3943	3.1822	2.2963
C	-2.9372	6.7343	0.0721
C	-3.0426	7.6783	1.1093
C	-2.0752	8.6669	1.2760
C	-0.9656	8.7418	0.4177
C	0.0507	9.7755	0.6435
C	-0.8579	7.8028	-0.6254
C	-1.8281	6.8221	-0.7957
C	5.6266	-3.8802	5.2922
C	4.8827	-2.7867	5.7207
C	4.4445	-1.8015	4.8118
C	4.7632	-1.9631	3.4524
C	5.4839	-3.0740	3.0179
C	5.9384	-4.0416	3.9298
C	6.7326	-5.1756	3.4359
C	3.6678	-0.6278	5.2746
C	2.5927	-0.7856	6.1626
C	1.8385	0.3168	6.5995
C	2.2071	1.5995	6.1605
C	3.2764	1.7871	5.2706
C	3.9879	0.6623	4.8227
C	3.6517	3.1470	4.8150
C	3.7586	4.2144	5.7298
C	4.1179	5.4890	5.3064
C	4.3616	5.7470	3.9447
C	4.7373	7.0819	3.4562
C	4.2378	4.6900	3.0272
C	3.9058	3.4062	3.4567
C	0.6426	0.1178	7.4510
C	-0.5219	0.8885	7.2451
C	-1.6783	0.6590	7.9785
C	-1.7136	-0.3522	8.9564
C	-2.9432	-0.6760	9.6868
C	-0.5480	-1.1007	9.1901
C	0.6104	-0.8715	8.4506
H	-2.8139	0.9001	-11.4733
H	-2.2555	-0.7703	-11.5398
H	-2.1523	-2.4444	-10.2178
H	-3.2354	-3.6910	-9.6669
H	-2.5572	-4.1204	-12.0355
H	-4.3048	-3.7971	-11.9731
H	-3.2007	-2.5376	-12.5340
H	-5.2652	-4.2586	-10.0028
H	-6.7834	-3.8646	-9.2620
H	-7.9629	-0.8914	-7.6056
H	-7.5233	-2.5673	-7.7964
H	-9.7303	-2.1297	-8.8957
H	-8.9898	-0.8978	-9.9436
H	-8.5319	-2.5942	-10.1269
H	-8.0877	0.8285	-8.8430
H	-6.9920	2.1295	-9.3079
H	-3.4172	2.1632	-9.8229
H	-4.9260	2.5989	-9.0710
H	-4.5727	2.1089	-12.1017
H	-6.0934	2.5615	-11.3266
H	-4.7228	3.6970	-11.3165
H	9.4725	-7.0221	-2.1212
H	10.3503	-6.1624	-0.8565
H	7.4341	-7.4524	-2.5893
H	6.2100	-8.5883	-2.1006
H	7.9062	-9.7103	-3.5687
H	9.2119	-9.2601	-2.4458
H	7.9823	-10.4231	-1.9414
H	6.0771	-10.2576	-0.7759
H	5.5901	-10.4363	0.9090
H	5.1175	-9.1434	2.5375
H	5.9859	-8.2434	3.7471
H	6.8106	-11.0327	2.7045
H	7.6976	-10.1175	3.9278
H	6.0486	-10.6863	4.2753
H	9.2352	-6.7694	3.8575
H	8.0159	-7.9213	4.2999
H	9.4595	-5.1824	2.4866
H	9.8197	-4.9376	0.7984
H	11.9042	-5.5200	2.0726
H	11.1724	-7.0497	2.6116
H	11.5527	-6.8130	0.9027
H	-5.5798	0.2672	10.8537
H	-4.9842	-1.3924	10.8919
H	-7.3468	2.1654	8.3652
H	-5.9812	1.7062	9.3471
H	-7.7154	2.8669	10.7411
H	-8.9329	1.6560	10.2747
H	-7.5646	1.1802	11.2856
H	-10.1183	0.3244	7.0345
H	-9.3097	1.5456	7.9646
H	-8.9316	-2.7806	5.6227
H	-9.4646	-1.1243	5.6039
H	-10.5858	-3.3119	7.4757
H	-11.1184	-1.6276	7.4744
H	-11.3995	-2.6425	6.0412
H	-8.5965	-4.2972	7.0705
H	-7.3398	-4.7505	8.2218
H	-5.3276	-4.1001	8.5272
H	-4.5032	-2.9126	9.4953
H	-5.3006	-4.8047	10.9361
H	-6.1255	-3.2999	11.4095
H	-6.9799	-4.5012	10.4363
H	6.5591	9.4209	3.8270
H	5.0463	10.0938	4.3458
H	2.9998	9.6429	3.8903
H	1.8027	10.1737	2.7447
H	2.6972	12.5495	2.8862
H	3.9190	12.0106	4.0427
H	2.1969	11.9356	4.4803
H	1.6895	11.5572	1.1394
H	2.1355	11.6161	-0.5650
H	2.8030	10.1089	-1.9549
H	4.3378	9.5149	-2.5226
H	5.3194	11.8533	-2.4067
H	3.8860	11.7956	-3.4604
H	3.7724	12.4696	-1.8191
H	6.4110	9.8765	-2.1491
H	7.6058	9.4062	-0.9393
H	7.6452	8.0393	0.6883
H	7.2882	8.0897	2.3936
H	8.5528	10.4246	0.8136
H	8.1819	10.4604	2.5403
H	9.4112	9.3311	1.9232
H	-7.8274	-5.5211	2.7495
H	-6.4069	-5.9774	0.7713
H	-2.8978	-4.9952	3.0744
H	-4.3317	-4.5445	5.0597
H	-8.1236	-4.8918	5.0189
H	-5.0062	-4.7465	-0.7801
H	-1.4877	-6.4874	-2.5375
H	-2.1813	-6.8444	1.7007
H	-1.1153	-8.8846	1.2211
H	1.0796	-9.9769	1.5545
H	3.4315	-10.1566	1.1429
H	2.8580	-7.3347	-1.3366
H	0.6642	-6.2106	-1.6563
H	-3.4119	-6.9261	-4.1572
H	-4.1313	-6.0484	-6.3801
H	-4.9620	-2.4068	-7.0185
H	-4.7448	-2.1617	-4.6444
H	-4.0781	-3.0402	-2.4184
H	7.7246	-4.3717	-5.3448
H	6.5365	-2.3776	-6.2071
H	6.4400	-0.7231	-2.2280
H	7.6547	-2.7212	-1.3727
H	8.6543	-5.6550	-3.5891
H	4.3552	-1.4242	-6.0573
H	3.5712	2.8064	-6.0681
H	6.7259	1.2075	-3.6133
H	5.8196	2.9067	-2.2277
H	6.2871	5.2035	-1.3917
H	6.0957	8.2992	-3.6109
H	5.6449	6.7669	-5.3472
H	5.2046	4.4844	-6.1933
H	3.8002	-1.0165	-8.3408
H	1.9235	-1.4006	-9.9090
H	-0.2819	-1.0021	-10.6728
H	-0.4541	1.5071	-7.8110
H	1.4164	1.8785	-6.2128
H	-6.3368	5.1835	-6.0137
H	-5.8116	5.9032	-3.7052
H	-5.9409	1.7943	-2.4047
H	-6.4987	1.0831	-4.7230
H	-6.6944	3.5125	-7.6530
H	-3.9988	5.7881	-2.2448
H	-4.1314	5.2819	2.0278
H	-6.7030	2.9272	-0.4904
H	-4.0544	2.9234	2.9245
H	-4.9311	1.7463	4.9264
H	-6.7309	0.7846	6.1748
H	-8.9601	2.4455	3.5958
H	-8.0866	3.5877	1.5562
H	-3.9051	7.6476	1.7763
H	-2.1785	9.3942	2.0846
H	-0.1622	10.4712	1.4821
H	0.0100	7.8534	-1.2834
H	-1.7153	6.0861	-1.5933
H	5.9854	-4.6270	6.0010
H	4.6560	-2.6669	6.7817
H	4.4123	-1.2260	2.7287
H	5.7042	-3.1978	1.9550
H	6.7550	-5.2969	2.3374
H	2.2979	-1.7920	6.4631
H	1.6449	2.4685	6.5052
H	4.8416	0.7996	4.1573
H	3.5811	4.0254	6.7901
H	4.2215	6.3087	6.0180
H	4.7018	7.2108	2.3587
H	4.4053	4.8819	1.9648
H	3.8070	2.5984	2.7302
H	-0.5257	1.6478	6.4617
H	-2.5855	1.2342	7.7919
H	-2.8564	-1.5040	10.4211
H	-0.5557	-1.8802	9.9556
H	1.5060	-1.4601	8.6536
