360

C	12.1061	-4.1733	-5.5771
N	10.6803	-4.0441	-5.9013
C	12.5811	-3.7238	-4.2061
C	13.0136	-2.3953	-4.0118
C	13.4519	-1.9825	-2.7346
C	13.4095	-2.8766	-1.6445
C	12.9743	-4.2043	-1.8459
C	12.5361	-4.6252	-3.1188
C	12.0172	-6.0366	-3.3326
C	13.1198	-7.0388	-3.7134
C	12.9446	-5.1699	-0.6668
N	11.7280	-4.9874	0.1232
C	13.8266	-2.4135	-0.2603
C	15.3264	-2.6194	0.0164
C	13.9205	-0.5532	-2.5237
N	12.9266	0.4643	-2.1631
C	13.0057	-1.4118	-5.1684
C	14.3258	-1.3968	-5.9587
C	-7.3714	-11.4008	-4.0127
N	-6.4301	-10.4064	-4.5435
C	-7.7342	-11.3449	-2.5379
C	-8.8109	-10.5383	-2.1071
C	-9.1427	-10.4921	-0.7369
C	-8.3784	-11.2084	0.2089
C	-7.3008	-12.0080	-0.2282
C	-6.9589	-12.0554	-1.5977
C	-5.7546	-12.8587	-2.0551
C	-6.0949	-14.3185	-2.3995
C	-6.4625	-12.7662	0.7848
N	-5.3139	-12.0800	1.3895
C	-8.7051	-11.1042	1.6879
C	-9.7158	-12.1620	2.1639
C	-10.2967	-9.6198	-0.2577
N	-9.7952	-8.3297	0.2129
C	-9.5972	-9.7253	-3.1198
C	-10.8251	-10.4683	-3.6723
C	-7.1375	9.7209	-7.5077
N	-7.3681	8.8100	-6.3782
C	-5.7686	9.7205	-8.1650
C	-5.4963	8.8174	-9.2167
C	-4.2199	8.8079	-9.8176
C	-3.1996	9.6571	-9.3350
C	-3.4812	10.5592	-8.2877
C	-4.7566	10.5774	-7.6832
C	-5.0344	11.5083	-6.5166
C	-5.5695	12.8827	-6.9556
C	-2.3933	11.4925	-7.7715
N	-1.7438	10.9257	-6.5925
C	-1.8091	9.5839	-9.9411
C	-1.5982	10.5591	-11.1111
C	-3.9244	7.8431	-10.9534
N	-3.4053	6.5094	-10.6253
C	-6.5698	7.8536	-9.6912
C	-7.4443	8.4244	-10.8214
C	-3.4473	5.1159	12.3925
N	-4.0959	4.7615	11.1244
C	-1.9615	4.8443	12.5568
C	-1.5271	3.6014	13.0643
C	-0.1467	3.3600	13.2365
C	0.7982	4.3391	12.8618
C	0.3560	5.5756	12.3437
C	-1.0210	5.8221	12.1625
C	-1.4998	7.1226	11.5410
C	-1.7202	8.2499	12.5638
C	1.3792	6.6321	11.9472
N	1.9111	6.3674	10.6114
C	2.2838	4.0604	13.0077
C	2.8461	4.4691	14.3805
C	0.3235	2.0191	13.7731
N	0.5999	0.9428	12.8133
C	-2.5407	2.5285	13.4210
C	-3.0121	2.6023	14.8834
C	-4.5724	-8.4087	-5.5583
C	-3.6931	-7.4144	-5.9629
C	-3.2075	-6.4592	-5.0377
C	-2.3061	-5.4393	-5.4465
C	-1.5307	-4.5565	-5.7778
C	-0.6307	-3.5116	-6.1337
C	0.7594	-3.6894	-5.9911
C	1.6520	-2.6474	-6.3096
C	3.0558	-2.8194	-6.1340
C	4.2583	-2.9496	-5.9669
C	5.6571	-3.0903	-5.7522
C	6.2443	-2.6534	-4.5455
C	7.6121	-2.8007	-4.3354
C	8.4388	-3.3811	-5.3128
C	9.8770	-3.5276	-5.0462
C	7.8549	-3.8112	-6.5203
C	6.4915	-3.6701	-6.7382
C	1.1427	-1.4226	-6.7827
C	-0.2443	-1.2325	-6.9351
C	-0.7541	0.0161	-7.3923
C	-1.2002	1.0907	-7.7623
C	-1.7132	2.3498	-8.1771
C	-2.0435	3.3384	-7.2255
C	-2.5345	4.5739	-7.6380
C	-2.7124	4.8648	-9.0019
C	-3.2265	6.1838	-9.3979
C	-2.3887	3.8758	-9.9512
C	-1.8985	2.6412	-9.5503
C	-1.1252	-2.2823	-6.6106
C	-3.6374	-6.5387	-3.6960
C	-4.5185	-7.5398	-3.2995
C	-5.0011	-8.4881	-4.2185
C	-5.9388	-9.5207	-3.7570
C	-3.7802	-8.7533	1.3415
C	-2.7296	-8.0125	1.8744
C	-1.8195	-8.6115	2.7720
C	-0.7397	-7.8616	3.3111
C	0.1851	-7.2035	3.7610
C	1.2533	-6.4032	4.2568
C	1.0111	-5.4315	5.2471
C	2.0518	-4.6040	5.7116
C	1.7909	-3.6185	6.7062
C	1.5538	-2.7774	7.5585
C	1.2754	-1.8039	8.5557
C	0.8356	-0.5110	8.2010
C	0.5691	0.4349	9.1866
C	0.7314	0.1304	10.5492
C	0.4558	1.1618	11.5586
C	1.1656	-1.1616	10.9036
C	1.4338	-2.1113	9.9285
C	3.3441	-4.7519	5.1746
C	3.6013	-5.7203	4.1833
C	4.8952	-5.8286	3.6090
C	5.9938	-5.8876	3.0790
C	7.2516	-5.9272	2.4286
C	7.7131	-7.1131	1.8166
C	8.9347	-7.1293	1.1520
C	9.7270	-5.9707	1.0631
C	10.9863	-6.0156	0.3133
C	9.2719	-4.7890	1.6812
C	8.0607	-4.7658	2.3555
C	2.5533	-6.5499	3.7372
C	-2.0045	-9.9722	3.1175
C	-3.0573	-10.7009	2.5832
C	-3.9619	-10.1049	1.6832
C	-5.0839	-10.8526	1.0990
C	10.9555	2.4597	-1.4345
C	9.9545	3.3553	-1.0888
C	8.6116	2.9247	-0.9668
C	7.5890	3.8416	-0.6046
C	6.7156	4.6321	-0.2858
C	5.6781	5.5342	0.0813
C	5.3218	5.6980	1.4334
C	4.2815	6.5756	1.8002
C	3.9127	6.7260	3.1618
C	3.5700	6.8443	4.3277
C	3.1567	6.9639	5.6772
C	2.5073	8.1317	6.1337
C	2.0895	8.2307	7.4566
C	2.2934	7.1740	8.3620
C	1.8148	7.3043	9.7415
C	2.9484	6.0114	7.9097
C	3.3771	5.9071	6.5955
C	3.5923	7.2874	0.8000
C	3.9340	7.1259	-0.5559
C	3.2053	7.8123	-1.5615
C	2.5602	8.3772	-2.4302
C	1.8088	9.0027	-3.4550
C	0.4184	9.2252	-3.2999
C	-0.3228	9.8009	-4.3198
C	0.2951	10.1863	-5.5257
C	-0.4723	10.7693	-6.6307
C	1.6788	9.9849	-5.6730
C	2.4285	9.3979	-4.6599
C	4.9846	6.2554	-0.9084
C	8.3109	1.5667	-1.2056
C	9.3231	0.6762	-1.5509
C	10.6570	1.1033	-1.6689
C	11.6963	0.1299	-2.0304
C	-10.3383	-4.8257	-0.7171
C	-9.9205	-3.5274	-0.4475
C	-8.9752	-3.2822	0.5719
C	-8.5246	-1.9655	0.8363
C	-8.1128	-0.8352	1.0466
C	-7.6001	0.4703	1.2651
C	-7.0731	0.8309	2.5209
C	-6.5406	2.1169	2.7298
C	-6.0128	2.4780	4.0018
C	-5.5573	2.7861	5.0915
C	-5.0292	3.1399	6.3626
C	-5.8598	3.7151	7.3550
C	-5.3443	4.0619	8.5957
C	-3.9830	3.8534	8.8925
C	-3.4013	4.2264	10.1890
C	-3.1594	3.2784	7.9091
C	-3.6671	2.9249	6.6623
C	-6.5280	3.0426	1.6688
C	-7.0480	2.6943	0.4069
C	-6.9944	3.6211	-0.6720
C	-6.9185	4.4042	-1.6054
C	-6.8046	5.3144	-2.6904
C	-5.5657	5.4992	-3.3411
C	-5.4562	6.3959	-4.3992
C	-6.5671	7.1359	-4.8393
C	-6.4063	8.0747	-5.9569
C	-7.8042	6.9499	-4.1927
C	-7.9249	6.0539	-3.1403
C	-7.5931	1.4112	0.2157
C	-8.4722	-4.3822	1.3107
C	-8.8876	-5.6749	1.0279
C	-9.8256	-5.9183	0.0051
C	-10.2645	-7.2738	-0.3414
H	12.6482	-3.6387	-6.3715
H	12.3612	-5.2298	-5.7491
H	11.5025	-6.3840	-2.4270
H	11.2428	-6.0311	-4.1116
H	12.7035	-8.0437	-3.8723
H	13.6329	-6.7338	-4.6362
H	13.8862	-7.1066	-2.9283
H	13.7986	-4.9607	-0.0056
H	13.0665	-6.2135	-1.0070
H	13.5757	-1.3510	-0.1346
H	13.2291	-2.9401	0.4954
H	15.9463	-2.0669	-0.7041
H	15.5922	-2.2764	1.0263
H	15.6090	-3.6787	-0.0670
H	14.4288	-0.1745	-3.4231
H	14.6953	-0.5094	-1.7438
H	12.7928	-0.4011	-4.7936
H	12.1744	-1.6443	-5.8482
H	15.1746	-1.1293	-5.3135
H	14.2833	-0.6717	-6.7835
H	14.5466	-2.3856	-6.3852
H	-8.2745	-11.3271	-4.6374
H	-6.9518	-12.3845	-4.2710
H	-4.9790	-12.8375	-1.2769
H	-5.2953	-12.3742	-2.9277
H	-6.8388	-14.3750	-3.2068
H	-5.1991	-14.8667	-2.7233
H	-6.5214	-14.8443	-1.5335
H	-7.0851	-13.1105	1.6247
H	-6.0675	-13.6953	0.3483
H	-7.7819	-11.1949	2.2769
H	-9.0842	-10.0971	1.9052
H	-9.3386	-13.1809	1.9961
H	-9.9267	-12.0497	3.2367
H	-10.6687	-12.0812	1.6212
H	-10.7951	-10.1096	0.5918
H	-11.0639	-9.5059	-1.0433
H	-9.9150	-8.7764	-2.6678
H	-8.9412	-9.4343	-3.9514
H	-11.3640	-9.8524	-4.4061
H	-10.5321	-11.4059	-4.1657
H	-11.5261	-10.7347	-2.8687
H	-7.3966	10.7270	-7.1449
H	-7.9226	9.4941	-8.2442
H	-5.7552	11.0387	-5.8329
H	-4.1182	11.6329	-5.9245
H	-6.5102	12.7856	-7.5160
H	-5.7563	13.5289	-6.0864
H	-4.8571	13.3993	-7.6149
H	-2.8485	12.4468	-7.4679
H	-1.6689	11.7356	-8.5686
H	-1.6078	8.5585	-10.2794
H	-1.0571	9.7761	-9.1644
H	-0.5831	10.4686	-11.5230
H	-2.3127	10.3658	-11.9238
H	-1.7470	11.6014	-10.7954
H	-4.8248	7.6755	-11.5632
H	-3.2052	8.2841	-11.6598
H	-7.2089	7.5652	-8.8452
H	-6.1038	6.9171	-10.0279
H	-6.8395	8.6856	-11.7013
H	-8.2065	7.6977	-11.1356
H	-7.9594	9.3418	-10.5029
H	-4.0225	4.6055	13.1796
H	-3.6659	6.1820	12.5565
H	-2.4321	6.9453	10.9878
H	-0.7801	7.4538	10.7803
H	-0.7944	8.4851	13.1074
H	-2.0692	9.1682	12.0703
H	-2.4689	7.9635	13.3158
H	2.2261	6.5973	12.6488
H	0.9525	7.6471	12.0292
H	2.8316	4.5771	12.2087
H	2.4762	2.9915	12.8406
H	2.3410	3.9329	15.1966
H	3.9216	4.2522	14.4453
H	2.7052	5.5432	14.5692
H	-0.4034	1.6088	14.4895
H	1.2427	2.1381	14.3664
H	-2.1138	1.5353	13.2237
H	-3.4098	2.6026	12.7528
H	-3.7440	1.8120	15.1019
H	-2.1701	2.4888	15.5809
H	-3.4819	3.5715	15.1035
H	-4.9490	-9.1451	-6.2688
H	-3.3653	-7.3576	-7.0012
H	1.1470	-4.6370	-5.6197
H	5.6130	-2.2026	-3.7799
H	8.0529	-2.4624	-3.3946
H	10.2179	-3.1677	-4.0574
H	8.4984	-4.2599	-7.2774
H	6.0458	-4.0082	-7.6741
H	1.8279	-0.6120	-7.0268
H	-1.9068	3.1231	-6.1658
H	-2.7852	5.3319	-6.8923
H	-3.4479	6.8782	-8.5662
H	-2.5313	4.1046	-11.0077
H	-1.6477	1.8806	-10.2901
H	-2.1991	-2.1387	-6.7196
H	-3.2707	-5.8074	-2.9758
H	-4.8446	-7.5908	-2.2581
H	-6.1982	-9.4790	-2.6827
H	-4.4777	-8.2795	0.6467
H	-2.5964	-6.9656	1.6018
H	0.0070	-5.3131	5.6516
H	0.7082	-0.2622	7.1474
H	0.2329	1.4340	8.8992
H	0.1241	2.1398	11.1636
H	1.2893	-1.3958	11.9612
H	1.7716	-3.1091	10.2095
H	4.1503	-4.1072	5.5215
H	7.0996	-8.0123	1.8687
H	9.2800	-8.0519	0.6802
H	11.2581	-7.0098	-0.0985
H	9.8901	-3.8936	1.6102
H	7.7103	-3.8486	2.8290
H	2.7455	-7.2941	2.9658
H	-1.3059	-10.4401	3.8116
H	-3.2035	-11.7485	2.8480
H	-5.7195	-10.2836	0.3953
H	11.9912	2.7867	-1.5291
H	10.1910	4.4037	-0.9062
H	5.8516	5.1384	2.2029
H	2.3372	8.9524	5.4371
H	1.5874	9.1390	7.7968
H	1.3498	8.2807	9.9913
H	3.1074	5.1963	8.6161
H	3.8822	5.0049	6.2498
H	2.7812	7.9594	1.0762
H	-0.0635	8.9235	-2.3697
H	-1.3960	9.9597	-4.2117
H	0.1223	11.0625	-7.5208
H	2.1681	10.2837	-6.6026
H	3.4986	9.2344	-4.7865
H	5.2503	6.1264	-1.9565
H	7.2795	1.2255	-1.1165
H	9.0804	-0.3734	-1.7324
H	11.3476	-0.9090	-2.1781
H	-11.0681	-5.0033	-1.5101
H	-10.3155	-2.6884	-1.0203
H	-7.0760	0.1089	3.3361
H	-6.9133	3.8817	7.1293
H	-5.9806	4.5063	9.3614
H	-2.3208	4.0186	10.3027
H	-2.1025	3.1108	8.1288
H	-3.0188	2.4813	5.9067
H	-6.1074	4.0350	1.8239
H	-4.6985	4.9308	-3.0049
H	-4.4927	6.5320	-4.8959
H	-5.3985	8.1042	-6.4110
H	-8.6629	7.5255	-4.5393
H	-8.8849	5.9126	-2.6432
H	-7.9938	1.1352	-0.7586
H	-7.7444	-4.1977	2.1014
H	-8.4937	-6.5243	1.5867
H	-11.0362	-7.3319	-1.1371
