456

C	-11.4110	6.3816	9.2988
N	-10.7148	6.5518	8.0157
C	-11.0042	5.2162	10.1835
C	-9.9539	5.3766	11.1116
C	-9.5593	4.2869	11.9179
C	-10.1705	3.0257	11.7581
C	-11.2215	2.8699	10.8271
C	-11.6244	3.9573	10.0228
C	-12.7153	3.7761	8.9830
C	-14.1226	4.0561	9.5374
C	-11.8469	1.5015	10.6319
N	-11.2040	0.5857	9.6793
C	-9.6880	1.8373	12.5714
C	-10.4291	1.6751	13.9094
C	-8.4096	4.4579	12.8936
N	-7.0476	4.2238	12.3945
C	-9.2408	6.7118	11.2347
C	-9.8842	7.6483	12.2722
C	-8.3436	-0.9731	-13.3448
N	-7.6890	-0.1491	-12.3297
C	-7.7369	-2.3719	-13.3544
C	-6.5084	-2.5882	-14.0159
C	-5.9363	-3.8774	-14.0203
C	-6.5586	-4.9341	-13.3197
C	-7.7911	-4.7138	-12.6702
C	-8.3741	-3.4265	-12.6680
C	-9.6833	-3.1979	-11.9328
C	-10.9159	-3.3819	-12.8337
C	-8.4626	-5.8468	-11.9138
N	-8.1723	-6.0014	-10.4818
C	-5.8989	-6.3006	-13.2651
C	-6.3266	-7.2246	-14.4183
C	-4.6103	-4.1188	-14.7202
N	-3.3756	-3.9621	-13.9415
C	-5.8064	-1.4385	-14.7147
C	-6.2174	-1.2894	-16.1895
C	10.3194	11.8659	0.3719
N	9.7226	10.8069	1.1958
C	9.9813	11.8994	-1.1078
C	8.8857	12.6580	-1.5719
C	8.5668	12.6593	-2.9483
C	9.3076	11.8664	-3.8497
C	10.4076	11.1147	-3.3806
C	10.7321	11.1104	-2.0077
C	11.8856	10.2625	-1.4997
C	13.2307	11.0103	-1.5114
C	11.1966	10.2604	-4.3565
N	10.7301	8.8924	-4.6146
C	8.9197	11.8171	-5.3177
C	9.6113	12.8995	-6.1648
C	7.3744	13.4565	-3.4452
N	6.0557	12.8089	-3.4381
C	8.0518	13.4707	-0.5980
C	8.5829	14.9024	-0.4075
C	9.0027	-10.8591	7.3907
N	8.5121	-9.4790	7.5116
C	8.5239	-11.6832	6.2094
C	7.3025	-12.3865	6.3045
C	6.8361	-13.1280	5.2000
C	7.5489	-13.1172	3.9798
C	8.7695	-12.4162	3.8948
C	9.2523	-11.6846	5.0023
C	10.5465	-10.9008	4.8869
C	11.7807	-11.7269	5.2879
C	9.5510	-12.3876	2.5865
N	9.2881	-11.1397	1.8707
C	6.9840	-13.8503	2.7752
C	7.4829	-15.2993	2.6490
C	5.5231	-13.8840	5.2900
N	4.2956	-13.1879	4.8828
C	6.4911	-12.3371	7.5867
C	6.8562	-13.4568	8.5758
C	-6.5267	1.5233	-10.2441
C	-6.0372	2.2531	-9.1684
C	-6.8573	2.5629	-8.0631
C	-8.1963	2.1334	-8.0871
C	-8.6937	1.4177	-9.1738
C	-7.8659	1.0905	-10.2609
C	-8.4096	0.2962	-11.3685
C	-6.3131	3.2972	-6.9014
C	-5.4744	4.4141	-7.0657
C	-4.9559	5.0930	-5.9659
C	-5.2298	4.6726	-4.6501
C	-6.0617	3.5475	-4.4908
C	-6.6020	2.8839	-5.5883
C	-4.6674	5.3814	-3.4763
C	-3.4364	6.0546	-3.5541
C	-2.8958	6.7266	-2.4461
C	-3.6046	6.7116	-1.2340
C	-4.8313	6.0393	-1.1205
C	-5.3518	5.3886	-2.2488
C	-5.5681	6.0113	0.1653
C	-6.1339	4.8144	0.6402
C	-6.8136	4.7709	1.8549
C	-6.9706	5.9281	2.6394
C	-6.4149	7.1283	2.1585
C	-5.7192	7.1668	0.9520
C	-7.6954	5.8819	3.9277
C	-8.5946	6.9069	4.2906
C	-9.2921	6.8604	5.4912
C	-9.1047	5.7905	6.3856
C	-9.8288	5.6964	7.6599
C	-8.1972	4.7770	6.0358
C	-7.5096	4.8150	4.8255
C	-1.5907	7.4209	-2.5470
C	-1.2665	8.1932	-3.6768
C	-0.0481	8.8618	-3.7670
C	0.9068	8.7757	-2.7367
C	0.5869	7.9928	-1.6118
C	-0.6380	7.3370	-1.5153
C	2.1979	9.4913	-2.8286
C	3.3956	8.8962	-2.3913
C	4.6037	9.5857	-2.4714
C	4.6598	10.8945	-2.9796
C	5.9475	11.6000	-3.0245
C	3.4648	11.4913	-3.4228
C	2.2624	10.8000	-3.3531
C	-7.5766	-6.2873	-7.6519
C	-7.2561	-6.3394	-6.3010
C	-6.4393	-5.3543	-5.7048
C	-5.9520	-4.3178	-6.5229
C	-6.2686	-4.2676	-7.8784
C	-7.0860	-5.2484	-8.4647
C	-7.4027	-5.1598	-9.8962
C	-6.0991	-5.4064	-4.2663
C	-6.0254	-4.2301	-3.4968
C	-5.6898	-4.2711	-2.1466
C	-5.4030	-5.4897	-1.5054
C	-5.4790	-6.6664	-2.2724
C	-5.8251	-6.6270	-3.6209
C	-5.0290	-5.5281	-0.0724
C	-5.6920	-4.7148	0.8615
C	-5.3437	-4.7351	2.2214
C	-4.2996	-5.5763	2.6375
C	-3.6089	-6.3913	1.7263
C	-3.9943	-6.3655	0.3757
C	-2.4716	-7.2275	2.1766
C	-2.2700	-8.5242	1.6702
C	-1.1917	-9.3012	2.0863
C	-0.2599	-8.8131	3.0220
C	-0.4665	-7.5177	3.5328
C	-1.5478	-6.7438	3.1210
C	0.9056	-9.6215	3.4406
C	2.1550	-9.0169	3.6741
C	3.2571	-9.7778	4.0545
C	3.1513	-11.1682	4.2244
C	4.3390	-11.9329	4.6241
C	1.9030	-11.7785	3.9988
C	0.8055	-11.0193	3.6120
C	-6.0706	-3.8992	3.2048
C	-6.3973	-4.3983	4.4789
C	-7.0819	-3.6163	5.4049
C	-7.4579	-2.2945	5.1026
C	-7.1291	-1.7947	3.8287
C	-6.4544	-2.5810	2.8985
C	-8.1717	-1.4576	6.0894
C	-9.1676	-2.0063	6.9254
C	-9.8408	-1.2238	7.8546
C	-9.5408	0.1444	7.9883
C	-10.2310	1.0044	8.9576
C	-8.5464	0.6938	7.1623
C	-7.8759	-0.0888	6.2261
C	7.4622	-6.7800	7.7574
C	6.9502	-5.4888	7.7830
C	6.2730	-4.9486	6.6690
C	6.1294	-5.7593	5.5278
C	6.6348	-7.0576	5.5046
C	7.3108	-7.5896	6.6158
C	7.8286	-8.9636	6.5570
C	5.7300	-3.5731	6.6948
C	5.8116	-2.7444	5.5602
C	5.2909	-1.4540	5.5711
C	4.6543	-0.9355	6.7134
C	4.5765	-1.7596	7.8506
C	5.1092	-3.0478	7.8436
C	4.0699	0.4256	6.6936
C	4.7343	1.4759	6.0399
C	4.1709	2.7591	5.9571
C	2.9220	2.9841	6.5578
C	2.2342	1.9556	7.2218
C	2.8217	0.6815	7.2840
C	0.9021	2.2088	7.8182
C	0.6273	3.4051	8.5057
C	-0.6280	3.6456	9.0578
C	-1.6690	2.7057	8.9361
C	-1.3952	1.5117	8.2433
C	-0.1360	1.2664	7.7018
C	-3.0013	2.9641	9.5219
C	-3.1257	3.5954	10.7782
C	-4.3701	3.8428	11.3411
C	-5.5468	3.4749	10.6622
C	-6.8791	3.7354	11.2213
C	-5.4301	2.8465	9.4106
C	-4.1802	2.5902	8.8507
C	4.8621	3.8395	5.2140
C	4.1407	4.7323	4.3996
C	4.7886	5.7260	3.6699
C	6.1865	5.8784	3.7277
C	6.9066	4.9948	4.5531
C	6.2591	3.9954	5.2759
C	6.8718	6.9337	2.9507
C	6.4610	7.2579	1.6442
C	7.1074	8.2585	0.9210
C	8.1768	8.9791	1.4791
C	8.8178	10.0469	0.6994
C	8.5936	8.6557	2.7841
C	7.9567	7.6503	3.4999
C	8.7354	-8.7445	0.2962
C	8.3735	-7.6563	-0.4860
C	7.6329	-7.8210	-1.6772
C	7.2821	-9.1311	-2.0552
C	7.6576	-10.2252	-1.2803
C	8.3827	-10.0514	-0.0901
C	8.7379	-11.2228	0.7166
C	7.2346	-6.6563	-2.4959
C	6.9691	-5.4055	-1.9051
C	6.5805	-4.3118	-2.6735
C	6.4242	-4.4199	-4.0667
C	6.6922	-5.6666	-4.6606
C	7.0950	-6.7568	-3.8939
C	5.9656	-3.2647	-4.8727
C	6.4816	-1.9784	-4.6462
C	6.0310	-0.8732	-5.3870
C	5.0337	-1.0740	-6.3541
C	4.4872	-2.3455	-6.5903
C	4.9758	-3.4361	-5.8536
C	3.3676	-2.5167	-7.5434
C	3.2761	-3.6378	-8.3879
C	2.1963	-3.7987	-9.2540
C	1.1572	-2.8506	-9.3044
C	1.2545	-1.7263	-8.4641
C	2.3364	-1.5617	-7.6054
C	-0.0101	-3.0303	-10.1941
C	0.1344	-3.5466	-11.4994
C	-0.9655	-3.7112	-12.3320
C	-2.2574	-3.3742	-11.8862
C	-3.4460	-3.5457	-12.7306
C	-2.4075	-2.8643	-10.5858
C	-1.3034	-2.6917	-9.7550
C	6.5913	0.4788	-5.1574
C	6.8571	1.3481	-6.2312
C	7.3853	2.6181	-6.0145
C	7.6616	3.0794	-4.7138
C	7.3871	2.2128	-3.6392
C	6.8690	0.9385	-3.8575
C	8.2240	4.4285	-4.4902
C	7.8049	5.2249	-3.4087
C	8.3267	6.5032	-3.2196
C	9.2901	7.0279	-4.0976
C	9.8033	8.3881	-3.8858
C	9.7249	6.2281	-5.1712
C	9.1997	4.9572	-5.3623
H	-11.3001	7.3351	9.8356
H	-12.4840	6.3345	9.0587
H	-12.5226	4.4318	8.1227
H	-12.6777	2.7557	8.5769
H	-14.3613	3.3843	10.3742
H	-14.8881	3.9188	8.7607
H	-14.2034	5.0844	9.9176
H	-11.9012	0.9591	11.5870
H	-12.8968	1.5882	10.3137
H	-9.7930	0.9168	11.9810
H	-8.6099	1.9317	12.7610
H	-10.3086	2.5658	14.5424
H	-10.0504	0.8071	14.4670
H	-11.5084	1.5354	13.7538
H	-8.4098	5.4707	13.3212
H	-8.5339	3.7989	13.7667
H	-8.1863	6.5463	11.4944
H	-9.2179	7.2110	10.2563
H	-9.3414	8.6020	12.3322
H	-9.8860	7.1939	13.2733
H	-10.9309	7.8674	12.0174
H	-8.1733	-0.4941	-14.3202
H	-9.4376	-1.0147	-13.2045
H	-9.6958	-2.1911	-11.4953
H	-9.7523	-3.8784	-11.0739
H	-10.9473	-4.3954	-13.2582
H	-11.8464	-3.2198	-12.2712
H	-10.9008	-2.6799	-13.6795
H	-8.2299	-6.8161	-12.3779
H	-9.5582	-5.7717	-11.9950
H	-4.8066	-6.1847	-13.2758
H	-6.1249	-6.7836	-12.3043
H	-7.4120	-7.3991	-14.4090
H	-5.8244	-8.1999	-14.3497
H	-6.0811	-6.7835	-15.3948
H	-4.5764	-5.1338	-15.1431
H	-4.5060	-3.4616	-15.5966
H	-6.0075	-0.5059	-14.1717
H	-4.7180	-1.5775	-14.6525
H	-5.9856	-2.1976	-16.7642
H	-5.6940	-0.4458	-16.6613
H	-7.2986	-1.1156	-16.2894
H	11.4067	11.7884	0.5175
H	10.0532	12.8168	0.8580
H	11.6697	9.9106	-0.4818
H	11.9701	9.3494	-2.1053
H	13.4949	11.3396	-2.5264
H	14.0418	10.3689	-1.1391
H	13.1920	11.9103	-0.8815
H	12.2467	10.1711	-4.0384
H	11.2566	10.7525	-5.3379
H	9.1523	10.8255	-5.7292
H	7.8298	11.9176	-5.4155
H	10.7054	12.8013	-6.1225
H	9.3655	13.9080	-5.8029
H	9.3042	12.8314	-7.2179
H	7.5384	13.8024	-4.4764
H	7.2597	14.3864	-2.8682
H	8.0135	12.9615	0.3751
H	7.0089	13.5087	-0.9410
H	9.6125	14.8970	-0.0223
H	7.9571	15.4653	0.2992
H	8.5991	15.4508	-1.3601
H	8.7493	-11.3562	8.3385
H	10.1014	-10.7963	7.4077
H	10.4920	-9.9993	5.5131
H	10.6575	-10.5293	3.8603
H	11.7106	-12.0701	6.3302
H	11.8826	-12.6251	4.6619
H	12.7020	-11.1361	5.1854
H	10.6289	-12.4245	2.8039
H	9.3269	-13.2754	1.9701
H	5.8868	-13.8435	2.8208
H	7.2299	-13.2988	1.8581
H	7.2214	-15.8883	3.5397
H	8.5770	-15.3381	2.5490
H	7.0417	-15.7949	1.7726
H	5.3462	-14.2401	6.3164
H	5.5656	-14.8065	4.6926
H	6.6240	-11.3608	8.0725
H	5.4195	-12.3936	7.3501
H	6.6951	-14.4496	8.1320
H	6.2498	-13.3898	9.4900
H	7.9154	-13.4030	8.8654
H	-5.8840	1.2623	-11.0853
H	-4.9914	2.5647	-9.1574
H	-8.8548	2.3848	-7.2545
H	-9.7389	1.1003	-9.1812
H	-9.4986	0.0897	-11.3143
H	-5.2583	4.7772	-8.0718
H	-4.3496	5.9842	-6.1320
H	-6.2648	3.1648	-3.4901
H	-7.2218	1.9998	-5.4304
H	-2.8567	6.0123	-4.4767
H	-3.1938	7.2268	-0.3646
H	-6.3336	4.9200	-2.1762
H	-6.0192	3.9010	0.0542
H	-7.2495	3.8302	2.1950
H	-6.5096	8.0382	2.7532
H	-5.3002	8.1115	0.6017
H	-8.7666	7.7328	3.5984
H	-10.0015	7.6438	5.7591
H	-9.5615	4.8285	8.2918
H	-8.0248	3.9534	6.7318
H	-6.7956	4.0269	4.5818
H	-1.9919	8.2877	-4.4865
H	0.1775	9.4475	-4.6594
H	1.3009	7.9194	-0.7900
H	-0.8557	6.7325	-0.6334
H	3.3799	7.8734	-2.0120
H	5.5267	9.1005	-2.1449
H	6.8192	11.0185	-2.6697
H	3.5053	12.5094	-3.8108
H	1.3420	11.2883	-3.6773
H	-8.2183	-7.0428	-8.1059
H	-7.6650	-7.1391	-5.6814
H	-5.2937	-3.5607	-6.0947
H	-5.8718	-3.4607	-8.4991
H	-6.9355	-4.3140	-10.4344
H	-6.2509	-3.2700	-3.9634
H	-5.6261	-3.3407	-1.5800
H	-5.2776	-7.6281	-1.7978
H	-5.8595	-7.5555	-4.1928
H	-6.5299	-4.0989	0.5325
H	-4.0139	-5.5920	3.6900
H	-3.4351	-6.9563	-0.3510
H	-2.9784	-8.9335	0.9481
H	-1.0531	-10.2956	1.6594
H	0.2255	-7.1170	4.2749
H	-1.6682	-5.7361	3.5215
H	2.2692	-7.9426	3.5240
H	4.2205	-9.2902	4.2211
H	5.2772	-11.3505	4.6871
H	1.8176	-12.8561	4.1420
H	-0.1593	-11.5070	3.4632
H	-6.1274	-5.4232	4.7378
H	-7.3098	-4.0277	6.3893
H	-7.4269	-0.7806	3.5579
H	-6.2042	-2.1633	1.9221
H	-9.4299	-3.0600	6.8191
H	-10.6185	-1.6495	8.4892
H	-9.8516	2.0416	9.0241
H	-8.2996	1.7533	7.2590
H	-7.0925	0.3560	5.6108
H	7.9953	-7.1892	8.6162
H	7.0954	-4.8695	8.6697
H	5.5878	-5.3759	4.6618
H	6.5045	-7.6749	4.6123
H	7.5876	-9.5229	5.6338
H	6.3059	-3.1152	4.6611
H	5.3537	-0.8437	4.6689
H	4.1036	-1.3796	8.7576
H	5.0201	-3.6688	8.7364
H	5.7002	1.2858	5.5706
H	2.4693	3.9744	6.4962
H	2.2922	-0.1281	7.7879
H	1.4167	4.1489	8.6241
H	-0.8140	4.5879	9.5751
H	-2.1765	0.7562	8.1471
H	0.0428	0.3362	7.1600
H	-2.2232	3.8678	11.3278
H	-4.4608	4.3198	12.3174
H	-7.7285	3.4843	10.5584
H	-6.3348	2.5550	8.8716
H	-4.1141	2.1196	7.8687
H	3.0575	4.6293	4.3193
H	4.1999	6.4097	3.0565
H	7.9928	5.0791	4.6113
H	6.8449	3.3302	5.9123
H	5.6424	6.7019	1.1849
H	6.7750	8.4952	-0.0925
H	8.4644	10.1532	-0.3439
H	9.4176	9.2204	3.2209
H	8.2775	7.4307	4.5195
H	9.3076	-8.6093	1.2144
H	8.6909	-6.6566	-0.1865
H	6.6826	-9.2916	-2.9518
H	7.3675	-11.2321	-1.5894
H	8.4869	-12.2040	0.2627
H	7.0291	-5.2979	-0.8214
H	6.3482	-3.3654	-2.1827
H	6.6132	-5.7701	-5.7440
H	7.3352	-7.6963	-4.3929
H	7.2802	-1.8456	-3.9149
H	4.6639	-0.2204	-6.9235
H	4.5259	-4.4204	-5.9903
H	4.0682	-4.3882	-8.3713
H	2.1422	-4.6874	-9.8846
H	0.4738	-0.9649	-8.4952
H	2.3725	-0.6909	-6.9493
H	1.1315	-3.7931	-11.8680
H	-0.8505	-4.0985	-13.3447
H	-4.4094	-3.2950	-12.2489
H	-3.4062	-2.6104	-10.2226
H	-1.4448	-2.3199	-8.7394
H	6.6653	1.0136	-7.2519
H	7.5702	3.2737	-6.8667
H	7.6053	2.5359	-2.6202
H	6.6584	0.2918	-3.0043
H	7.0391	4.8484	-2.7291
H	7.9800	7.1106	-2.3797
H	9.3283	8.9520	-3.0607
H	10.4829	6.6297	-5.8441
H	9.5627	4.3441	-6.1887
