150

C	-4.8510	2.9269	-0.4357
N	-3.5924	3.6588	-0.5814
C	-4.8195	1.4300	-0.1791
C	-4.8290	0.5313	-1.2673
C	-4.8608	-0.8585	-1.0251
C	-4.8222	-1.3526	0.2961
C	-4.8127	-0.4491	1.3803
C	-4.7835	0.9428	1.1450
C	-4.7253	1.9146	2.3109
C	-6.1138	2.3433	2.8166
C	-4.8409	-0.9769	2.8043
N	-3.5815	-1.2521	3.4965
C	-4.8002	-2.8500	0.5497
C	-6.2041	-3.4680	0.6705
C	-4.9266	-1.8264	-2.1922
N	-3.6809	-2.3178	-2.7808
C	-4.8089	1.0583	-2.6919
C	-6.2112	1.3003	-3.2774
C	4.8911	2.8405	-0.4868
N	3.6462	3.6023	-0.5951
C	4.8348	1.3398	-0.2581
C	4.7931	0.4613	-1.3625
C	4.8059	-0.9341	-1.1493
C	4.8035	-1.4524	0.1636
C	4.8476	-0.5684	1.2633
C	4.8337	0.8278	1.0572
C	4.8280	1.7741	2.2455
C	6.2382	2.1664	2.7199
C	4.9035	-1.1212	2.6766
N	3.6540	-1.3644	3.3984
C	4.7569	-2.9531	0.3934
C	6.1472	-3.6080	0.4743
C	4.8207	-1.8810	-2.3368
N	3.5522	-2.3414	-2.9021
C	4.7478	1.0159	-2.7763
C	6.1419	1.2276	-3.3916
C	0.1138	-3.5742	9.5984
C	-0.8425	-2.6298	9.2140
C	-0.8601	-2.1382	7.9079
C	0.0792	-2.5804	6.9584
C	1.0383	-3.5278	7.3609
C	1.0543	-4.0215	8.6659
C	0.0606	-2.0647	5.5675
C	-1.1525	-1.8031	4.9122
C	-1.1791	-1.3208	3.5941
C	-2.4594	-1.0555	2.9126
C	0.0329	-1.0996	2.9217
C	1.2578	-1.3557	3.5566
C	2.5259	-1.1187	2.8452
C	1.2588	-1.8322	4.8762
C	-0.1718	-6.5000	-7.8914
C	0.7966	-5.4936	-7.8299
C	0.8225	-4.6076	-6.7516
C	-0.1217	-4.7064	-5.7133
C	-1.0912	-5.7230	-5.7891
C	-1.1149	-6.6114	-6.8654
C	-0.0978	-3.7620	-4.5692
C	-1.2922	-3.2986	-3.9971
C	-1.2840	-2.4094	-2.9112
C	-2.5487	-1.9292	-2.3266
C	-0.0552	-1.9710	-2.3942
C	1.1524	-2.4176	-2.9523
C	2.4387	-1.9593	-2.3990
C	1.1184	-3.3114	-4.0342
C	0.0584	10.0862	-1.7822
C	1.0219	9.5218	-0.9407
C	1.0162	8.1496	-0.6854
C	0.0457	7.3119	-1.2649
C	-0.9188	7.8938	-2.1081
C	-0.9119	9.2655	-2.3649
C	0.0391	5.8527	-0.9979
C	1.2415	5.1390	-0.8772
C	1.2459	3.7574	-0.6289
C	2.5129	3.0132	-0.5085
C	0.0224	3.0809	-0.5070
C	-1.1924	3.7731	-0.6240
C	-2.4699	3.0512	-0.4841
C	-1.1714	5.1553	-0.8665
H	-5.4337	3.1475	-1.3424
H	-5.4055	3.4410	0.3637
H	-4.1582	1.4658	3.1384
H	-4.1520	2.8059	2.0200
H	-6.6967	2.8318	2.0232
H	-6.0265	3.0472	3.6560
H	-6.7003	1.4786	3.1579
H	-5.3969	-0.2865	3.4564
H	-5.4218	-1.9101	2.8548
H	-4.2282	-3.0621	1.4637
H	-4.2488	-3.3526	-0.2573
H	-6.7702	-3.0177	1.4980
H	-6.1431	-4.5504	0.8506
H	-6.7928	-3.3084	-0.2438
H	-5.5039	-2.7217	-1.9170
H	-5.5004	-1.3888	-3.0228
H	-4.2612	0.3570	-3.3369
H	-4.2321	1.9930	-2.7305
H	-6.7749	2.0309	-2.6803
H	-6.1470	1.6802	-4.3066
H	-6.8041	0.3750	-3.2936
H	5.4599	3.0659	-1.4015
H	5.4731	3.3270	0.3101
H	4.2633	2.6819	1.9907
H	4.2767	1.3175	3.0792
H	6.1881	2.8500	3.5789
H	6.8060	2.6648	1.9217
H	6.8192	1.2836	3.0221
H	5.5005	-0.4602	3.3229
H	5.4536	-2.0738	2.6958
H	4.1992	-3.1669	1.3161
H	4.1767	-3.4305	-0.4087
H	6.7433	-3.1842	1.2948
H	6.0620	-4.6910	0.6403
H	6.7188	-3.4503	-0.4511
H	5.3892	-2.7913	-2.0932
H	5.3806	-1.4379	-3.1738
H	4.1976	1.9671	-2.7833
H	4.1639	0.3417	-3.4186
H	6.7074	0.2863	-3.4378
H	6.7402	1.9311	-2.7955
H	6.0647	1.6279	-4.4122
H	0.1257	-3.9595	10.6188
H	-1.5750	-2.2678	9.9371
H	-1.5975	-1.3862	7.6230
H	1.7621	-3.8995	6.6341
H	1.8001	-4.7639	8.9539
H	-2.1061	-1.9931	5.4050
H	-2.3887	-0.6766	1.8750
H	0.0223	-0.7267	1.8934
H	2.4421	-0.7215	1.8157
H	2.2228	-1.9982	5.3573
H	-0.1915	-7.1932	-8.7334
H	1.5319	-5.3927	-8.6296
H	1.5691	-3.8125	-6.7237
H	-1.8180	-5.8318	-4.9827
H	-1.8694	-7.3988	-6.8990
H	-2.2589	-3.6028	-4.3987
H	-2.4582	-1.2207	-1.4813
H	-0.0385	-1.2765	-1.5493
H	2.3816	-1.2723	-1.5333
H	2.0694	-3.6651	-4.4326
H	0.0637	11.1584	-1.9824
H	1.7781	10.1546	-0.4738
H	1.7595	7.7225	-0.0106
H	-1.6661	7.2587	-2.5859
H	-1.6634	9.6942	-3.0296
H	2.2026	5.6390	-0.9981
H	2.4220	1.9227	-0.3421
H	0.0161	2.0036	-0.3174
H	-2.3972	1.9638	-0.2913
H	-2.1266	5.6768	-0.9281
