108

N	3.3564	4.1062	2.2818
N	2.0538	5.3964	0.0346
N	-2.5271	-1.0001	5.0939
N	4.4622	-3.6240	-0.5418
N	5.0412	-2.1088	1.8635
N	-4.0411	3.8656	-1.4347
N	-5.4622	1.8672	0.1128
N	-1.6257	-5.1500	-2.0413
N	0.2150	-0.3292	5.7604
N	0.7697	2.0596	-5.3384
N	-3.7843	-4.3526	-0.2753
N	1.5425	-0.7303	-5.5161
C	3.2371	1.7096	2.5603
C	0.1996	4.3279	-1.0887
C	-3.1612	-1.4470	2.8062
C	2.6889	-2.9336	-2.0300
C	3.8180	0.4685	2.2603
C	0.9979	3.7978	-2.1169
C	-3.6379	-0.1439	2.5780
C	1.7483	-3.8262	-1.4862
C	3.3496	-0.7081	2.8700
C	0.4167	3.1029	-3.1876
C	-4.2508	0.1897	1.3613
C	0.4675	-3.9440	-2.0451
C	2.2843	-0.6342	3.7794
C	-0.9782	2.9290	-3.2198
C	-4.3762	-0.7893	0.3606
C	0.1252	-3.1519	-3.1549
C	1.6924	0.6023	4.0902
C	-1.7875	3.4521	-2.2015
C	-3.9044	-2.0928	0.5740
C	1.0519	-2.2574	-3.7083
C	2.1704	1.7680	3.4735
C	-1.1899	4.1470	-1.1349
C	-3.2934	-2.4137	1.7981
C	2.3316	-2.1502	-3.1371
C	3.7677	2.9301	1.9206
C	0.7931	5.0828	0.0324
C	-2.5345	-1.8217	4.0892
C	4.0485	-2.8143	-1.4684
C	3.8526	5.3462	1.6905
C	2.6914	6.1486	1.1120
C	-1.9311	-1.3207	6.3889
C	5.7991	-3.5580	0.0448
C	3.9649	-2.0203	2.5827
C	1.2814	2.5779	-4.2641
C	-4.7620	1.5603	1.1626
C	-0.4884	-4.9079	-1.4646
C	5.6978	-3.3779	1.5548
C	1.5762	1.5346	-6.4384
C	-6.0009	3.2027	-0.1304
C	-2.6052	-6.0992	-1.5170
C	0.5851	0.7008	5.0629
C	-3.2515	3.2730	-2.2774
C	-4.0731	-3.1048	-0.4891
C	0.6681	-1.4569	-4.8882
C	-0.8657	-0.2878	6.7422
C	-5.4955	3.7324	-1.4684
C	-3.9391	-5.3963	-1.2851
C	1.2206	0.0739	-6.6929
H	4.6021	5.1477	0.8910
H	4.3473	5.9466	2.4829
H	4.6396	0.4233	1.5551
H	2.0738	3.9308	-2.0919
H	-3.5406	0.6104	3.3491
H	2.0132	-4.4354	-0.6297
H	1.9697	6.3951	1.9224
H	3.0822	7.1022	0.6985
H	1.9220	-1.5417	4.2492
H	-1.4381	2.3927	-4.0418
H	-4.8472	-0.5418	-0.5830
H	-0.8626	-3.2349	-3.5947
H	-1.4772	-2.3376	6.3899
H	-2.7263	-1.2992	7.1628
H	1.7137	2.7211	3.7125
H	-1.8058	4.5546	-0.3419
H	-2.9244	-3.4176	1.9733
H	3.0560	-1.4612	-3.5572
H	6.3952	-2.7238	-0.3903
H	4.5270	2.8329	1.1522
H	0.1560	5.3939	0.8526
H	-2.0956	-2.8082	4.1918
H	4.7126	-2.0491	-1.8558
H	6.3303	-4.5080	-0.1718
H	3.5147	-2.9139	2.9998
H	2.3579	2.6505	-4.1549
H	-4.5633	2.3110	1.9197
H	-0.2200	-5.4306	-0.5533
H	6.7206	-3.3641	1.9872
H	5.1485	-4.2395	1.9965
H	2.6649	1.6213	-6.2244
H	1.3579	2.1245	-7.3536
H	-5.7192	3.9118	0.6800
H	-7.1094	3.1407	-0.1617
H	-2.2590	-6.5608	-0.5655
H	-2.7489	-6.9113	-2.2609
H	0.0939	1.6573	5.2051
H	-3.6640	2.6508	-3.0640
H	-4.4638	-2.7959	-1.4522
H	-0.3563	-1.4989	-5.2416
H	-1.3312	0.7222	6.7957
H	-0.4489	-0.5269	7.7427
H	-5.9417	4.7321	-1.6531
H	-5.8251	3.0516	-2.2853
H	-4.3126	-4.9819	-2.2481
H	-4.6798	-6.1390	-0.9203
H	1.8166	-0.2982	-7.5526
H	0.1434	-0.0052	-6.9606
