108

N	-0.2222	2.5573	5.1714
N	-2.8908	2.8827	4.0833
N	4.5628	3.1748	-1.5605
N	1.9350	-4.9297	2.3004
N	3.0872	-2.8484	3.9610
N	-3.6623	3.8545	-2.2499
N	-1.3600	3.9235	-4.0114
N	1.1365	-3.9738	-4.0311
N	4.9245	2.7278	1.2825
N	-5.4913	-1.7369	0.4023
N	1.9764	-1.4664	-5.2236
N	-3.9962	-4.1659	-0.1242
C	1.3593	1.0643	4.1203
C	-3.3374	2.3923	1.7592
C	2.8960	1.9379	-2.7963
C	0.1956	-4.4066	0.7076
C	1.8603	-0.2440	4.0479
C	-3.8218	1.0991	2.0213
C	1.9344	2.9609	-2.7189
C	1.0812	-4.3117	-0.3804
C	2.9951	-0.5349	3.2713
C	-4.3463	0.3087	0.9883
C	0.7035	2.8357	-3.3797
C	0.5982	-4.0961	-1.6792
C	3.6222	0.4964	2.5569
C	-4.3738	0.8177	-0.3221
C	0.4304	1.6693	-4.1149
C	-0.7862	-3.9659	-1.8860
C	3.1320	1.8122	2.6198
C	-3.8944	2.1057	-0.5991
C	1.3799	0.6404	-4.1999
C	-1.6818	-4.0580	-0.8115
C	1.9983	2.0873	3.3987
C	-3.3721	2.8862	0.4475
C	2.6095	0.7794	-3.5339
C	-1.1827	-4.2741	0.4845
C	0.1795	1.3414	4.9637
C	-2.8048	3.2462	2.8391
C	4.2056	2.0627	-2.1264
C	0.6857	-4.6564	2.0772
C	-1.3760	2.8900	6.0030
C	-2.3894	3.6909	5.1916
C	5.8493	3.3586	-0.8925
C	2.4741	-5.1934	3.6329
C	3.5493	-1.9027	3.2022
C	-4.8684	-1.0373	1.3009
C	-0.2748	3.9382	-3.2981
C	1.5532	-4.0252	-2.8029
C	3.6023	-4.2164	3.9418
C	-6.0369	-3.0684	0.6586
C	-2.3568	4.9903	-3.9784
C	2.0355	-3.9113	-5.1814
C	3.7940	2.9141	1.8920
C	-3.9597	2.6198	-1.9820
C	1.0714	-0.5623	-5.0005
C	-3.1313	-3.9397	-1.0663
C	5.6283	3.7817	0.5563
C	-3.7184	4.4191	-3.5961
C	1.7305	-2.6698	-6.0138
C	-5.4410	-4.0721	-0.3223
H	-1.8649	1.9759	6.4102
H	-1.0321	3.5059	6.8607
H	1.3668	-1.0330	4.6031
H	-3.7998	0.7060	3.0316
H	2.1448	3.8593	-2.1518
H	2.1484	-4.4112	-0.2193
H	-1.9168	4.6319	4.8315
H	-3.2422	3.9644	5.8481
H	4.4970	0.2722	1.9569
H	-4.7759	0.2152	-1.1286
H	-0.5175	1.5623	-4.6282
H	-1.1704	-3.7987	-2.8863
H	6.4605	2.4281	-0.9185
H	6.4145	4.1551	-1.4197
H	1.6198	3.1015	3.4468
H	-2.9977	3.8827	0.2447
H	3.3500	-0.0098	-3.5922
H	-1.8667	-4.3467	1.3229
H	1.6862	-5.1115	4.4158
H	-0.3408	0.5110	5.4286
H	-2.3549	4.1987	2.5828
H	4.8817	1.2148	-2.1312
H	-0.0192	-4.6296	2.9013
H	2.8744	-6.2282	3.6567
H	4.3667	-2.1042	2.5193
H	-4.7430	-1.4288	2.3043
H	-0.0666	4.7794	-2.6461
H	2.6165	-4.0359	-2.5907
H	4.0222	-4.4528	4.9424
H	4.4146	-4.3360	3.1901
H	-5.8327	-3.3999	1.7011
H	-7.1380	-3.0355	0.5179
H	-2.0752	5.7918	-3.2591
H	-2.4268	5.4456	-4.9890
H	3.1026	-3.8936	-4.8663
H	1.8768	-4.8146	-5.8078
H	3.3319	3.8954	1.8904
H	-4.2806	1.9533	-2.7751
H	0.0784	-0.6736	-5.4214
H	-3.4705	-3.6805	-2.0633
H	5.0649	4.7418	0.5807
H	6.6143	3.9502	1.0375
H	-4.4698	5.2363	-3.6099
H	-4.0248	3.6565	-4.3472
H	0.6789	-2.7144	-6.3752
H	2.3985	-2.6570	-6.9009
H	-5.8916	-5.0697	-0.1363
H	-5.6927	-3.7691	-1.3631
