228

N	-3.9083	3.9731	-1.4438
N	-3.1918	2.7328	-3.9429
N	-1.8504	-3.5693	-4.1214
N	-1.9557	-5.1391	-1.7070
F	-8.8302	7.8693	-2.2027
F	-5.7301	5.8778	-8.8089
F	-4.5624	-6.6595	-8.9259
F	-3.2053	-11.1953	-3.0301
C	-1.5125	3.9259	1.3283
H	-0.8447	4.6980	0.9666
C	-2.6005	3.5315	0.5365
C	-2.8246	4.1918	-0.7647
H	-2.0829	4.8907	-1.1346
C	-4.2048	4.6118	-2.7266
H	-3.3430	5.2469	-3.0378
C	-4.4127	3.5275	-3.8071
H	-5.2519	2.8720	-3.4792
C	-3.1458	1.4475	-3.7689
H	-4.0495	0.9005	-3.5224
C	-1.8832	0.7041	-3.9426
C	-0.6643	1.3730	-4.1469
H	-0.6368	2.4559	-4.1649
C	0.5223	0.6515	-4.3429
C	0.4870	-0.7534	-4.3220
H	1.3972	-1.3206	-4.4751
C	-0.7218	-1.4342	-4.1196
C	-1.9032	-0.6985	-3.9236
H	-2.8442	-1.2143	-3.7681
C	-0.7321	-2.9098	-4.1385
H	0.2106	-3.4417	-4.1990
C	-1.9315	-5.0301	-4.1608
H	-0.9041	-5.4629	-4.1449
C	-2.6841	-5.5392	-2.9119
H	-3.6984	-5.0774	-2.9089
C	1.7808	1.3821	-4.5912
H	1.7873	2.4634	-4.5083
C	-5.4370	5.4798	-2.5719
C	-6.6406	4.9404	-2.0807
H	-6.6980	3.8984	-1.7914
C	-7.7774	5.7443	-1.9579
H	-8.6999	5.3201	-1.5802
C	-7.7259	7.0921	-2.3215
C	-6.5351	7.6385	-2.8083
H	-6.4943	8.6828	-3.0909
C	-5.3947	6.8392	-2.9317
H	-4.4837	7.2790	-3.3173
C	-4.7537	4.1435	-5.1494
C	-6.0251	3.9439	-5.7171
H	-6.7682	3.3453	-5.2053
C	-6.3504	4.5278	-6.9440
H	-7.3328	4.3720	-7.3720
C	-5.4111	5.3124	-7.6183
C	-4.1437	5.5140	-7.0661
H	-3.4161	6.1209	-7.5888
C	-3.8143	4.9328	-5.8383
H	-2.8265	5.0981	-5.4257
C	-2.6311	-5.4507	-5.4385
C	-2.0159	-6.3618	-6.3150
H	-1.0368	-6.7671	-6.0909
C	-2.6655	-6.7667	-7.4842
H	-2.1860	-7.4706	-8.1520
C	-3.9338	-6.2649	-7.7911
C	-4.5536	-5.3581	-6.9277
H	-5.5353	-4.9691	-7.1658
C	-3.9071	-4.9505	-5.7575
H	-4.4015	-4.2447	-5.1010
C	-2.8196	-7.0488	-2.9273
C	-1.6836	-7.8740	-2.8297
H	-0.6971	-7.4409	-2.7263
C	-1.8160	-9.2651	-2.8646
H	-0.9364	-9.8921	-2.7902
C	-3.0791	-9.8460	-2.9960
C	-4.2138	-9.0354	-3.0913
H	-5.1934	-9.4857	-3.1948
C	-4.0868	-7.6443	-3.0566
H	-4.9764	-7.0325	-3.1403
N	-4.1524	0.4720	3.9600
N	-3.5606	-2.3454	3.8756
N	2.4946	-4.3174	2.8785
N	4.6013	-2.3867	2.5059
F	-8.0518	1.8038	8.7560
F	-7.7523	-5.6137	7.3048
F	4.3710	-8.9693	6.7285
F	10.1762	-4.7897	4.2774
C	-3.4698	2.5318	1.0072
H	-4.3152	2.2220	0.4044
C	-3.2637	1.9390	2.2605
C	-4.2146	0.9187	2.7428
H	-4.9927	0.5657	2.0737
C	-5.0772	-0.5197	4.5096
H	-5.7800	-0.8591	3.7129
C	-4.2831	-1.7505	5.0007
H	-3.5565	-1.4049	5.7721
C	-2.2717	-2.4975	3.8475
H	-1.6694	-2.1878	4.6944
C	-1.6083	-3.1252	2.6882
C	-2.3229	-3.4375	1.5190
H	-3.3790	-3.2040	1.4503
C	-1.6863	-4.0653	0.4385
C	-0.3168	-4.3712	0.5288
H	0.1851	-4.8575	-0.2997
C	0.4083	-4.0660	1.6886
C	-0.2431	-3.4370	2.7639
H	0.3077	-3.1976	3.6667
C	1.8364	-4.4317	1.7658
H	2.3249	-4.8306	0.8840
C	3.9037	-4.6836	3.0292
H	4.3142	-5.0056	2.0437
C	4.7090	-3.4531	3.5026
H	4.2754	-3.1089	4.4700
C	-2.4716	-4.4129	-0.7623
H	-3.5004	-4.0789	-0.8333
C	-5.8664	0.1140	5.6365
C	-5.2082	0.7243	6.7217
H	-4.1272	0.7623	6.7571
C	-5.9445	1.2898	7.7667
H	-5.4296	1.7565	8.5977
C	-7.3406	1.2553	7.7406
C	-8.0037	0.6538	6.6673
H	-9.0855	0.6261	6.6465
C	-7.2727	0.0872	5.6192
H	-7.8047	-0.3801	4.7992
C	-5.1995	-2.7931	5.6073
C	-5.1259	-3.0866	6.9810
H	-4.4120	-2.5763	7.6154
C	-5.9845	-4.0324	7.5480
H	-5.9236	-4.2496	8.6074
C	-6.9211	-4.6975	6.7520
C	-6.9997	-4.4166	5.3852
H	-7.7244	-4.9318	4.7679
C	-6.1446	-3.4704	4.8130
H	-6.2180	-3.2671	3.7526
C	4.0135	-5.8295	4.0139
C	4.6782	-7.0142	3.6510
H	5.1132	-7.1217	2.6645
C	4.7979	-8.0665	4.5636
H	5.3134	-8.9736	4.2762
C	4.2538	-7.9475	5.8459
C	3.5891	-6.7762	6.2166
H	3.1678	-6.6836	7.2084
C	3.4681	-5.7214	5.3077
H	2.9476	-4.8208	5.6109
C	6.1721	-3.7954	3.7024
C	6.9812	-4.1586	2.6096
H	6.5730	-4.1828	1.6072
C	8.3247	-4.4914	2.8051
H	8.9396	-4.7711	1.9592
C	8.8736	-4.4654	4.0895
C	8.0787	-4.1042	5.1811
H	8.5031	-4.0854	6.1765
C	6.7355	-3.7701	4.9908
H	6.1332	-3.5009	5.8497
N	0.5505	4.7983	3.1332
N	3.2571	3.9144	2.6965
N	4.8507	1.1231	-2.8910
N	2.8596	0.7495	-4.9406
F	0.4661	10.5329	5.7969
F	7.3105	7.3320	6.1468
F	10.2687	3.2252	-5.3836
F	5.5453	0.5794	-10.6631
C	-2.1690	2.3439	3.0440
H	-2.0016	1.8942	4.0161
C	-1.2939	3.3395	2.5875
C	-0.1753	3.7690	3.4488
H	0.0160	3.2314	4.3703
C	1.6581	5.2925	3.9533
H	1.8043	4.6200	4.8303
C	2.9597	5.2828	3.1212
H	2.8006	5.9272	2.2263
C	3.3801	3.5574	1.4538
H	3.2768	4.2939	0.6646
C	3.7021	2.1628	1.0954
C	3.7323	1.1471	2.0670
H	3.5026	1.3783	3.1007
C	4.0730	-0.1669	1.7159
C	4.3736	-0.4671	0.3760
H	4.6395	-1.4789	0.0938
C	4.3471	0.5352	-0.6036
C	4.0049	1.8487	-0.2374
H	3.9824	2.6320	-0.9866
C	4.7029	0.1959	-1.9951
H	4.8703	-0.8432	-2.2564
C	5.2237	0.8564	-4.2804
H	5.2930	-0.2438	-4.4462
C	4.1333	1.4125	-5.2235
H	4.0382	2.5068	-5.0334
C	4.1314	-1.2041	2.7650
H	3.8038	-0.9569	3.7683
C	1.3251	6.6873	4.4415
C	0.9852	7.7062	3.5311
H	0.9427	7.5026	2.4684
C	0.6979	8.9958	3.9884
H	0.4389	9.7738	3.2812
C	0.7436	9.2813	5.3553
C	1.0773	8.2762	6.2674
H	1.1137	8.4972	7.3263
C	1.3653	6.9852	5.8157
H	1.6275	6.2215	6.5365
C	4.1300	5.8166	3.9225
C	4.7450	7.0271	3.5549
H	4.3930	7.5845	2.6954
C	5.8110	7.5341	4.3035
H	6.2761	8.4688	4.0155
C	6.2761	6.8375	5.4222
C	5.6757	5.6321	5.7938
H	6.0361	5.0922	6.6592
C	4.6084	5.1218	5.0489
H	4.1563	4.1853	5.3501
C	6.5725	1.4900	-4.5601
C	7.6253	0.7136	-5.0752
H	7.4866	-0.3422	-5.2726
C	8.8651	1.2980	-5.3515
H	9.6691	0.6937	-5.7509
C	9.0658	2.6609	-5.1145
C	8.0265	3.4409	-4.6013
H	8.1820	4.4957	-4.4171
C	6.7859	2.8609	-4.3238
H	5.9918	3.4800	-3.9238
C	4.4950	1.1861	-6.6775
C	4.5729	-0.1165	-7.2054
H	4.3603	-0.9756	-6.5816
C	4.9256	-0.3175	-8.5424
H	4.9847	-1.3230	-8.9396
C	5.2028	0.7767	-9.3670
C	5.1258	2.0747	-8.8538
H	5.3421	2.9219	-9.4904
C	4.7732	2.2801	-7.5165
H	4.7262	3.2923	-7.1352
