168

N	-4.0096	1.5081	-3.8648
C	-1.1847	1.0294	-4.1503
C	-1.7118	2.1522	-3.4899
C	-3.1670	2.3153	-3.2972
C	-5.4614	1.6245	-3.7206
C	-6.0810	1.9220	-5.0956
C	-7.6110	1.9805	-5.0103
H	-1.8481	0.2562	-4.5196
H	-3.5273	3.1391	-2.6911
H	-5.7192	2.4621	-3.0298
H	-5.7012	2.8983	-5.4678
H	-5.7808	1.1371	-5.8246
H	-7.9177	2.8419	-4.3749
H	-8.0295	2.1397	-6.0268
N	-1.4456	2.3043	5.0886
C	0.3185	3.2413	3.0135
C	0.6171	2.1458	3.8417
C	-0.3520	1.6509	4.8382
C	-2.4378	1.8710	6.0721
C	-2.5272	2.9189	7.1922
C	-3.6102	2.5455	8.2126
H	-0.6443	3.7337	3.0925
H	-0.1270	0.7401	5.3832
H	-2.1390	0.8960	6.5251
H	-1.5473	2.9875	7.7131
H	-2.7552	3.9182	6.7597
H	-3.3238	1.6048	8.7331
H	-3.6886	3.3488	8.9755
N	-0.0827	-5.7450	0.5348
C	2.0741	-3.8496	0.7534
C	1.4540	-4.1732	-0.4660
C	0.2978	-5.0891	-0.5190
C	-1.2122	-6.6739	0.5418
C	-0.6985	-8.0878	0.8579
C	-1.8567	-9.0883	0.9495
H	1.6983	-4.2667	1.6799
H	-0.2176	-5.2294	-1.4621
H	-1.7083	-6.6955	-0.4572
H	-0.0008	-8.4146	0.0568
H	-0.1376	-8.0815	1.8191
H	-2.3462	-9.1863	-0.0445
H	-1.4593	-10.0860	1.2353
N	-5.4790	0.0921	-1.8055
C	-4.3559	-0.0950	0.8390
C	-4.2932	-1.1392	-0.0995
C	-4.8116	-0.9700	-1.4714
C	-6.0272	0.3124	-3.1446
C	-7.5601	0.3785	-3.0562
C	-8.1791	0.6818	-4.4267
H	-4.7808	0.8616	0.5580
H	-4.6492	-1.7603	-2.1960
H	-5.7495	-0.5275	-3.8238
H	-7.9510	-0.5959	-2.6907
H	-7.8646	1.1642	-2.3298
H	-7.9762	-0.1608	-5.1235
H	-9.2807	0.7792	-4.3181
N	3.1877	-2.5982	-4.0466
C	1.9513	-3.6247	-1.6566
C	3.0653	-2.7674	-1.6402
C	3.6161	-2.2007	-2.8875
C	3.7010	-2.0839	-5.3170
C	4.3733	-3.2306	-6.0890
C	4.8641	-2.7568	-7.4630
H	1.4724	-3.8728	-2.5968
H	4.4070	-1.4621	-2.8253
H	4.4617	-1.2873	-5.1368
H	5.2401	-3.6099	-5.5057
H	3.6556	-4.0707	-6.2215
H	5.6690	-2.0001	-7.3325
H	5.2918	-3.6195	-8.0177
N	1.8227	5.4512	0.5047
C	2.5064	3.0768	1.9845
C	1.2585	3.7147	2.0870
C	0.9238	4.8832	1.2493
C	1.5551	6.6167	-0.3378
C	2.3994	7.8006	0.1583
C	2.2089	9.0295	-0.7399
H	3.2412	3.4340	1.2715
H	-0.0846	5.2805	1.2811
H	0.4777	6.9030	-0.2772
H	2.0973	8.0605	1.1963
H	3.4756	7.5191	0.1758
H	1.1578	9.3866	-0.6657
H	2.8737	9.8475	-0.3897
N	4.5338	0.4480	3.5403
C	1.8669	1.5192	3.7273
C	2.8198	1.9823	2.8040
C	4.1477	1.3493	2.6893
C	5.8409	-0.2061	3.4858
C	6.6365	0.1504	4.7519
C	7.9882	-0.5728	4.7764
H	2.0975	0.6738	4.3660
H	4.8143	1.6661	1.8939
H	6.4182	0.1455	2.5976
H	6.8110	1.2480	4.7803
H	6.0517	-0.1270	5.6578
H	8.6222	-0.2082	3.9388
H	8.5118	-0.3400	5.7281
N	1.9678	-0.3506	-5.4123
C	1.0593	1.9025	-3.8666
C	0.1987	0.9007	-4.3469
C	0.7197	-0.2785	-5.0662
C	2.5408	-1.4866	-6.1356
C	3.0389	-1.0095	-7.5090
C	3.7151	-2.1514	-8.2781
H	2.1288	1.8129	-4.0118
H	0.0363	-1.0796	-5.3256
H	1.7695	-2.2772	-6.2962
H	2.1773	-0.6335	-8.1038
H	3.7594	-0.1709	-7.3816
H	2.9668	-2.9393	-8.5120
H	4.1141	-1.7609	-9.2392
N	-2.7698	-4.9092	1.2319
C	-3.7398	-2.3711	0.2784
C	-3.2599	-2.5702	1.5842
C	-2.6972	-3.8689	2.0045
C	-2.2415	-6.2235	1.5970
C	-3.4024	-7.2275	1.6823
C	-2.8893	-8.6394	1.9904
H	-3.6908	-3.1759	-0.4457
H	-2.2405	-3.9510	2.9848
H	-1.7398	-6.1809	2.5925
H	-4.1034	-6.9131	2.4855
H	-3.9645	-7.2386	0.7220
H	-2.4318	-8.6576	3.0031
H	-3.7454	-9.3485	1.9883
N	4.9556	-2.0483	2.1307
C	3.6733	-2.4537	-0.4172
C	3.1865	-2.9957	0.7853
C	3.8302	-2.6945	2.0789
C	5.6462	-1.7314	3.3801
C	7.0047	-2.4510	3.4001
C	7.8022	-2.0907	4.6601
H	4.5322	-1.7917	-0.4037
H	3.3627	-3.0451	2.9925
H	5.0515	-2.0803	4.2567
H	6.8403	-3.5502	3.3778
H	7.5946	-2.1744	2.4973
H	7.2715	-2.4717	5.5605
H	8.7982	-2.5799	4.6171
N	-3.7103	0.6448	4.3714
C	-3.3291	-1.5191	2.5099
C	-3.8810	-0.2790	2.1456
C	-3.9835	0.8293	3.1156
C	-3.8040	1.6996	5.3806
C	-4.8850	1.3212	6.4060
C	-4.9697	2.3629	7.5282
H	-2.9579	-1.6725	3.5165
H	-4.3154	1.8014	2.7684
H	-4.0921	2.6686	4.9082
H	-5.8701	1.2559	5.8966
H	-4.6587	0.3221	6.8434
H	-5.3113	3.3353	7.1106
H	-5.7169	2.0313	8.2808
N	1.0298	5.2030	-2.2713
C	-0.8407	3.1439	-3.0161
C	0.5463	3.0280	-3.2053
C	1.4748	4.0749	-2.7351
C	1.8993	6.2814	-1.8019
C	1.7015	7.5147	-2.6984
C	2.5387	8.6987	-2.2003
H	-1.2479	4.0093	-2.5066
H	2.5428	3.8999	-2.8037
H	2.9704	5.9734	-1.8580
H	2.0066	7.2662	-3.7383
H	0.6269	7.8019	-2.7168
H	3.6203	8.4574	-2.2927
H	2.3298	9.5874	-2.8335
