150

N	-1.8930	-0.2377	-5.5661
N	-2.6841	2.5978	-4.5466
N	-4.3492	3.6165	1.6214
N	1.3712	5.6940	-0.5702
C	-0.4709	-1.7867	-4.3713
C	-1.5426	-2.4564	-3.7564
H	-2.5595	-2.1237	-3.9286
C	-0.6948	-0.5985	-5.2185
H	0.1602	-0.0056	-5.5245
C	-2.5247	3.3315	-2.2472
C	-1.2470	3.8958	-2.4074
H	-0.7409	3.8264	-3.3635
C	-0.5996	4.5160	-1.3297
C	-1.2445	4.5795	-0.0827
H	-0.7439	5.0357	0.7637
C	-2.5191	4.0203	0.0926
C	-3.1556	3.4024	-0.9968
H	-4.1313	2.9473	-0.8669
C	-3.1820	2.5978	-3.3465
H	-4.0781	2.0260	-3.1315
C	0.7757	5.0205	-1.5068
H	1.3014	4.7907	-2.4273
C	-3.1313	4.0260	1.4353
H	-2.5335	4.3497	2.2816
C	-2.1647	0.9861	-6.3190
H	-1.2437	1.6057	-6.4390
C	-3.2474	1.8048	-5.6385
H	-4.0592	1.1289	-5.2763
C	-3.8026	2.6863	-6.7472
H	-4.8697	2.9358	-6.5607
H	-3.2158	3.6293	-6.8229
C	-3.6367	1.8756	-8.0356
H	-4.6249	1.5169	-8.3979
H	-3.1709	2.5036	-8.8263
C	-2.7351	0.6857	-7.6973
H	-1.9231	0.5677	-8.4472
H	-3.3434	-0.2459	-7.6697
C	2.7653	6.1239	-0.6668
H	3.2630	5.6989	-1.5705
C	2.8869	7.6398	-0.7088
H	2.8421	8.0143	-1.7542
H	2.0686	8.1104	-0.1178
C	4.2348	7.9600	-0.0589
H	4.9645	8.3000	-0.8266
H	4.1136	8.7639	0.7000
C	-4.9581	3.5115	2.9457
H	-4.2139	3.7067	3.7543
C	-6.1225	4.4768	3.1102
H	-5.7749	5.4585	3.4975
H	-6.6372	4.6319	2.1356
N	3.4929	-3.1748	-3.5136
N	5.4201	-1.6052	-1.6355
N	3.9581	4.3253	0.4964
N	3.6824	-0.7227	4.5323
C	1.0916	-3.2846	-3.2469
C	0.8413	-2.2088	-4.1154
H	1.6694	-1.6775	-4.5712
C	2.4693	-3.6844	-2.8985
H	2.6194	-4.3935	-2.0920
C	4.7419	0.1562	-0.1229
C	4.5903	-0.7047	0.9765
H	4.7569	-1.7688	0.8587
C	4.1871	-0.2063	2.2242
C	3.9425	1.1701	2.3697
H	3.6073	1.5620	3.3235
C	4.0886	2.0414	1.2803
C	4.4934	1.5279	0.0370
H	4.5871	2.1883	-0.8167
C	5.0797	-0.3640	-1.4623
H	5.0084	0.3027	-2.3156
C	3.9528	-1.1489	3.3364
H	3.9788	-2.2140	3.1328
C	3.7384	3.4658	1.4438
H	3.2605	3.7841	2.3650
C	4.8737	-3.4681	-3.1336
H	4.9188	-4.0710	-2.1949
C	5.6649	-2.1841	-2.9557
H	5.4052	-1.4666	-3.7710
C	7.1144	-2.6129	-3.1240
H	7.7319	-1.7787	-3.5254
H	7.5374	-2.9408	-2.1481
C	7.0810	-3.7978	-4.0915
H	7.4916	-3.5028	-5.0822
H	7.6873	-4.6385	-3.6886
C	5.6151	-4.2144	-4.2314
H	5.4941	-5.3144	-4.1173
H	5.2356	-3.9087	-5.2322
C	3.3463	-1.6198	5.6372
H	3.2366	-2.6740	5.2873
C	4.3937	-1.5747	6.7391
H	5.1958	-2.3225	6.5561
H	4.8485	-0.5610	6.8006
C	3.6366	-1.8756	8.0356
H	3.8940	-2.8909	8.4089
H	3.9017	-1.1289	8.8161
C	3.5375	5.7229	0.5791
H	2.9118	5.9076	1.4848
C	4.7264	6.6703	0.6027
H	5.0683	6.8544	1.6448
H	5.5705	6.2483	0.0116
N	-2.2909	-5.2194	-1.4600
N	-3.0399	-4.7986	1.5344
N	0.8945	-1.6379	5.5798
N	-4.5628	1.1632	3.5281
C	-1.3085	-3.5319	-2.8870
C	0.0122	-3.9440	-2.6400
H	0.2058	-4.7583	-1.9521
C	-2.4493	-4.1571	-2.1889
H	-3.4271	-3.6946	-2.2681
C	-2.1799	-3.0257	2.9355
C	-3.2613	-2.1633	2.6857
H	-4.0492	-2.4655	2.0052
C	-3.3142	-0.8925	3.2779
C	-2.2762	-0.4887	4.1358
H	-2.2960	0.4995	4.5806
C	-1.1916	-1.3383	4.3943
C	-1.1522	-2.6090	3.7939
H	-0.3071	-3.2645	3.9687
C	-2.0650	-4.3290	2.2520
H	-1.1346	-4.8802	2.3318
C	-4.4179	0.0225	2.9257
H	-5.0944	-0.2588	2.1262
C	-0.0758	-0.8510	5.2292
H	-0.0612	0.1931	5.5225
C	-3.3720	-5.8112	-0.6741
H	-4.2868	-5.1706	-0.6910
C	-2.9310	-6.0354	0.7619
H	-1.8882	-6.4358	0.7769
C	-3.8751	-7.1100	1.2794
H	-3.3872	-7.7213	2.0691
H	-4.7977	-6.6466	1.6955
C	-4.2349	-7.9599	0.0590
H	-3.7429	-8.9552	0.1197
H	-5.3359	-8.1085	0.0056
C	-3.7384	-7.2006	-1.1740
H	-4.5225	-7.1470	-1.9598
H	-2.8416	-7.7119	-1.5892
C	-5.5800	2.1404	3.1426
H	-6.1113	1.8301	2.2111
C	-6.6073	2.3506	4.2453
H	-7.4517	1.6349	4.1440
H	-6.1352	2.2180	5.2445
C	-7.0811	3.7979	4.0915
H	-8.1204	3.8265	3.6949
H	-7.0597	4.3146	5.0763
C	2.0660	-1.1718	6.3210
H	2.0657	-0.0598	6.4275
C	2.1447	-1.7969	7.7052
H	1.5968	-1.1809	8.4520
H	1.7118	-2.8226	7.6924
