150

N	-5.0894	-2.8070	-0.9168
N	-5.8601	-0.1479	0.5118
N	-2.5126	5.2994	-0.4758
N	-1.9440	2.1250	5.1315
C	-2.8282	-3.6185	-1.1956
C	-2.6709	-3.0478	-2.4702
H	-3.4702	-2.4566	-2.9013
C	-4.0510	-3.3915	-0.4001
H	-4.0610	-3.6935	0.6414
C	-4.3380	1.6848	0.9307
C	-4.0032	1.2471	2.2241
H	-4.4255	0.3263	2.6099
C	-3.0951	1.9699	3.0103
C	-2.5256	3.1480	2.4977
H	-1.8044	3.7024	3.0873
C	-2.8495	3.5968	1.2087
C	-3.7615	2.8621	0.4327
H	-4.0020	3.1877	-0.5734
C	-5.2229	0.8892	0.0572
H	-5.3113	1.1645	-0.9879
C	-2.6977	1.4380	4.3280
H	-3.0197	0.4405	4.6070
C	-2.1680	4.7884	0.6669
H	-1.3432	5.2189	1.2260
C	-6.2808	-2.4740	-0.1369
H	-6.1267	-2.6730	0.9508
C	-6.6663	-1.0197	-0.3417
H	-6.5585	-0.7496	-1.4199
C	-8.1403	-0.9672	0.0310
H	-8.6643	-0.1628	-0.5295
H	-8.2575	-0.7859	1.1232
C	-8.7004	-2.3480	-0.3214
H	-9.3551	-2.2835	-1.2179
H	-9.2946	-2.7490	0.5287
C	-7.4998	-3.2530	-0.6088
H	-7.5860	-4.2219	-0.0709
H	-7.4346	-3.4483	-1.7026
C	-1.4469	1.5943	6.3999
H	-1.6942	0.5124	6.5160
C	-2.0110	2.3555	7.5902
H	-2.9672	1.9055	7.9340
H	-2.1863	3.4216	7.3201
C	-0.9345	2.2744	8.6748
H	-1.2581	1.5927	9.4921
H	-0.7455	3.2828	9.1041
C	-1.7996	6.4152	-1.0941
H	-0.8749	6.6746	-0.5255
C	-2.6736	7.6562	-1.1973
H	-2.5853	8.2833	-0.2844
H	-3.7394	7.3683	-1.3390
N	0.4639	-5.8524	0.4002
N	2.2775	-4.7247	2.6683
N	0.7674	0.7386	5.7868
N	5.6400	0.6831	1.5322
C	-0.5656	-4.5188	-1.3352
C	-1.7742	-4.3554	-0.6374
H	-1.8867	-4.7761	0.3556
C	0.5838	-5.2160	-0.7252
H	1.5483	-5.1633	-1.2180
C	2.3600	-2.4035	3.3434
C	3.4443	-2.0913	2.5069
H	3.8632	-2.8500	1.8567
C	3.9710	-0.7916	2.4750
C	3.4085	0.2000	3.2969
H	3.7926	1.2134	3.2622
C	2.3247	-0.0971	4.1363
C	1.8081	-1.4031	4.1579
H	0.9566	-1.6379	4.7853
C	1.7382	-3.7421	3.3241
H	0.7971	-3.8892	3.8440
C	5.0532	-0.4747	1.5216
H	5.3336	-1.2185	0.7836
C	1.7008	0.9870	4.9198
H	2.0138	2.0103	4.7378
C	1.5968	-6.4707	1.0867
H	2.5630	-6.2187	0.5871
C	1.6440	-6.0364	2.5412
H	0.6116	-6.0343	2.9665
C	2.4550	-7.1239	3.2289
H	2.1523	-7.2320	4.2942
H	3.5412	-6.8853	3.1824
C	2.1775	-8.4036	2.4376
H	1.5350	-9.0940	3.0273
H	3.1326	-8.9204	2.1978
C	1.4594	-7.9835	1.1531
H	1.9143	-8.4645	0.2590
H	0.3864	-8.2728	1.2154
C	6.6448	1.0724	0.5437
H	6.7392	0.3081	-0.2643
C	8.0097	1.2850	1.1802
H	8.5921	0.3381	1.1978
H	7.8978	1.6627	2.2208
C	8.7004	2.3481	0.3214
H	9.5171	1.8915	-0.2795
H	9.1329	3.1421	0.9691
C	0.0560	1.7905	6.5109
H	0.3316	2.8040	6.1328
C	0.3308	1.7331	8.0051
H	1.2221	2.3433	8.2700
H	0.5007	0.6810	8.3281
N	-0.2549	-2.7174	-5.2128
N	1.4307	-0.1444	-5.7056
N	5.3091	2.2713	-1.1277
N	-0.2278	5.2772	-2.5921
C	-1.4703	-3.2023	-3.1788
C	-0.4224	-3.9435	-2.6067
H	0.5175	-4.0495	-3.1350
C	-1.3046	-2.5170	-4.4760
H	-2.0646	-1.8121	-4.7951
C	2.2403	1.3284	-3.9674
C	1.1398	2.1988	-4.0490
H	0.3301	1.9853	-4.7376
C	1.0559	3.3255	-3.2173
C	2.0913	3.5848	-2.3023
H	2.0255	4.4399	-1.6394
C	3.1950	2.7256	-2.2100
C	3.2656	1.6004	-3.0500
H	4.1030	0.9171	-2.9708
C	2.3013	0.0923	-4.7719
H	3.0716	-0.6379	-4.5496
C	-0.1541	4.1700	-3.2658
H	-1.0023	3.8338	-3.8520
C	4.2215	2.9771	-1.1791
H	4.0382	3.7470	-0.4376
C	-0.0048	-1.9863	-6.4537
H	-0.7548	-1.1729	-6.6063
C	1.3955	-1.3982	-6.4572
H	2.1173	-2.1433	-6.0425
C	1.7069	-1.1831	-7.9305
H	2.7993	-1.2583	-8.1212
H	1.3476	-0.1822	-8.2596
C	0.9345	-2.2743	-8.6748
H	1.6329	-3.0431	-9.0715
H	0.3693	-1.8327	-9.5249
C	-0.0272	-2.9061	-7.6653
H	-1.0541	-2.9907	-8.0820
H	0.3378	-3.9202	-7.3886
C	-1.4415	6.0908	-2.5335
H	-2.3003	5.5783	-3.0294
C	-1.2409	7.4513	-3.1847
H	-1.4827	7.4129	-4.2690
H	-0.1881	7.7896	-3.0580
C	-2.1776	8.4037	-2.4376
H	-3.0376	8.6891	-3.0834
H	-1.6303	9.3261	-2.1425
C	6.3031	2.4213	-0.0654
H	5.9449	3.1150	0.7336
C	7.6304	2.9350	-0.6016
H	7.6581	4.0469	-0.5975
H	7.7953	2.5711	-1.6409
