87

O	0.9036	3.5434	2.9022
O	-0.8968	-3.5042	3.0132
O	0.9187	0.7167	-4.6231
O	-0.9565	-0.7348	-4.6864
O	0.9185	-4.3934	1.7775
O	-0.8968	4.4171	1.6452
C	3.4325	-1.0417	1.7539
C	-3.3713	-1.4232	1.3219
C	2.5537	-1.8774	-2.5538
H	2.5678	-2.8192	-2.4300
C	4.1552	-1.7456	-0.6203
H	4.9558	-1.1952	-0.4285
H	4.4678	-2.6307	-0.9355
C	-3.3437	1.9129	0.6145
C	3.3619	-1.9292	0.6674
C	2.5228	-3.0378	0.7394
H	2.4841	-3.6403	0.0059
C	3.3953	1.4346	1.2773
C	-4.1692	1.6880	-0.6449
H	-4.9552	1.1295	-0.4199
H	-4.5034	2.5613	-0.9699
C	2.5382	2.0245	2.2152
H	2.5090	1.6802	3.1006
C	1.7411	-3.2805	1.8630
C	-4.1875	-1.3556	-1.1280
H	-4.9791	-0.8887	-0.7614
H	-4.5114	-2.0910	-1.7055
C	3.3555	0.3091	-1.9552
C	-3.3832	-0.3783	-1.9729
C	1.7303	3.1008	1.8771
C	-1.7364	3.3174	1.7722
C	4.2313	0.2487	1.7381
H	5.0070	0.1429	1.1327
H	4.5760	0.4277	2.6484
C	-1.7100	-3.0745	1.9731
C	-3.3884	1.0136	-1.7597
C	-1.8731	2.5530	2.9206
H	-1.4090	2.7859	3.7159
C	-3.4157	1.0723	1.7387
C	1.7138	0.0258	-3.7222
C	1.7859	3.6492	0.6044
H	1.2614	4.4083	0.3749
C	3.4261	1.9394	-0.0320
C	1.7372	-1.3510	-3.5481
H	1.2086	-1.9192	-4.0949
C	-2.7054	1.4382	2.8823
H	-2.7928	0.9056	3.6647
C	-1.7854	1.3040	-3.5839
H	-1.2517	1.8771	-4.1230
C	-2.5395	-2.0071	2.2818
H	-2.5420	-1.6648	3.1695
C	-2.5612	-3.0452	-0.2579
H	-2.5821	-3.4181	-1.1316
C	2.6353	3.0560	-0.3280
H	2.6792	3.4246	-1.2024
C	-2.5705	-0.8949	-2.9892
H	-2.5723	-1.8312	-3.1523
C	3.3536	-1.0816	-1.7281
C	4.2100	1.2851	-1.1613
H	4.5528	1.9876	-1.7691
H	4.9875	0.8043	-0.7825
C	-3.3809	-1.9432	0.0189
C	2.6765	-1.3425	2.8925
H	2.7453	-0.7711	3.6481
C	1.8327	-2.4409	2.9622
H	1.3278	-2.6152	3.7478
C	-2.6104	1.8173	-2.5923
H	-2.6453	2.7590	-2.4761
C	-4.2083	-0.2263	1.7651
H	-4.9929	-0.1399	1.1682
H	-4.5423	-0.3853	2.6850
C	-0.0477	-4.6010	2.7959
H	-0.5988	-5.3873	2.5560
H	0.4219	-4.8110	3.6409
C	2.5351	0.8381	-2.9447
H	2.5352	1.7760	-3.0942
C	-1.7653	-0.0775	-3.7643
C	-1.7242	-3.6155	0.6907
H	-1.1730	-4.3581	0.4710
C	0.0642	4.6483	2.6587
H	0.6227	5.4230	2.3984
H	-0.4049	4.8835	3.4975
C	-2.4911	3.0171	0.6448
H	-2.4267	3.5756	-0.1221
C	-0.0090	0.0138	-5.4224
H	0.4869	-0.6015	-6.0188
H	-0.4904	0.6610	-5.9943
