468

C	9.3569	-0.0989	5.6315
H	10.2959	-0.0806	6.2299
C	8.3856	0.9567	6.1747
H	7.5080	1.0344	5.4921
H	8.8929	1.9457	6.1822
C	7.8972	0.6331	7.5920
H	8.7555	0.6854	8.2992
C	7.2736	-0.7687	7.6399
H	6.3377	-0.7736	7.0359
H	6.9969	-1.0064	8.6910
C	8.2202	-1.8569	7.1105
H	9.0776	-1.9655	7.8121
C	8.7320	-1.5004	5.7009
H	7.8831	-1.5557	4.9821
H	9.4896	-2.2494	5.3851
C	10.7743	0.5446	3.7347
H	11.6491	0.5686	4.3744
C	10.9102	0.8817	2.2930
C	9.7858	1.0732	1.4577
C	9.9706	1.3233	0.0771
C	11.2732	1.4845	-0.4232
H	11.4034	1.6890	-1.4769
C	12.4064	1.3660	0.4060
C	12.1998	1.0424	1.7657
H	13.0347	0.9114	2.4378
C	13.8136	1.5757	-0.1972
C	14.0570	0.5359	-1.3127
H	13.3457	0.6643	-2.1555
H	13.9432	-0.4939	-0.9124
H	15.0825	0.6377	-1.7289
C	13.9103	2.9979	-0.7920
H	13.6939	3.7583	-0.0101
H	13.1936	3.1440	-1.6270
H	14.9292	3.1896	-1.1932
C	14.9516	1.4259	0.8403
H	14.9646	0.4009	1.2707
H	14.8414	2.1687	1.6601
H	15.9428	1.5971	0.3662
C	8.8148	1.3454	-0.8537
H	7.8671	0.9334	-0.5311
C	7.7883	1.8479	-2.9881
H	6.8465	1.5732	-2.4557
C	7.6178	3.2713	-3.5478
H	8.5566	3.5970	-4.0479
H	7.4119	3.9724	-2.7088
C	6.4483	3.3176	-4.5460
H	5.5223	3.0140	-4.0016
C	6.6777	2.3151	-5.6903
H	7.5879	2.5920	-6.2672
H	5.8065	2.3428	-6.3804
C	6.8238	0.8970	-5.1125
H	5.8929	0.6590	-4.5458
C	8.0043	0.8394	-4.1290
H	8.0754	-0.1851	-3.7019
H	8.9562	1.0615	-4.6608
C	6.1261	-0.9790	-6.4692
H	5.1931	-0.9813	-5.9223
C	6.3358	-1.9814	-7.5431
C	5.4774	-3.1019	-7.6591
C	5.5672	-3.9405	-8.7924
C	6.5834	-3.7209	-9.7317
H	6.6555	-4.3907	-10.5785
C	7.5038	-2.6597	-9.5978
C	7.3461	-1.7852	-8.4989
H	7.9918	-0.9283	-8.3823
C	8.6199	-2.4855	-10.6504
C	9.5518	-1.2849	-10.3590
H	10.3461	-1.2052	-11.1331
H	10.0560	-1.4039	-9.3756
H	8.9839	-0.3297	-10.3700
C	7.9878	-2.2596	-12.0414
H	7.3140	-1.3756	-12.0201
H	7.3973	-3.1407	-12.3708
H	8.7732	-2.0824	-12.8071
C	9.4969	-3.7572	-10.6842
H	8.9157	-4.6481	-11.0001
H	9.9242	-3.9574	-9.6776
H	10.3375	-3.6382	-11.4026
C	5.1654	5.3122	-5.0276
H	4.2950	4.8067	-4.6310
C	5.0312	6.7066	-5.5201
C	3.9029	7.4898	-5.1755
C	3.7153	8.7535	-5.7797
C	4.6983	9.2568	-6.6432
H	4.5478	10.2356	-7.0785
C	5.8661	8.5272	-6.9453
C	6.0040	7.2388	-6.3838
H	6.8581	6.6243	-6.6223
C	6.9281	9.1492	-7.8796
C	8.1590	8.2373	-8.1002
H	7.8651	7.2843	-8.5912
H	8.6652	8.0147	-7.1352
H	8.9033	8.7326	-8.7601
C	6.2984	9.4282	-9.2616
H	5.4780	10.1720	-9.1956
H	5.8852	8.4910	-9.6939
H	7.0566	9.8322	-9.9666
C	7.4355	10.4749	-7.2708
H	7.8549	10.2983	-6.2560
H	6.6236	11.2264	-7.1862
H	8.2335	10.9206	-7.9051
C	8.0044	-4.2811	6.8988
H	9.0807	-4.4011	6.9269
C	7.0116	2.5790	8.7897
H	7.9405	2.6902	9.3362
N	9.6217	0.2186	4.2309
N	7.4687	-3.1077	7.0407
N	6.8667	1.6047	7.9474
N	8.9213	1.8087	-2.0622
N	6.2965	4.6736	-5.0758
N	7.0190	-0.0764	-6.1881
O	8.5051	1.0487	2.0293
H	7.7954	1.5607	1.5238
O	4.5539	-3.4215	-6.6525
H	4.7877	-3.0805	-5.7303
O	2.9783	7.0570	-4.2146
H	3.3301	6.3868	-3.5455
C	-1.1092	10.5627	-2.4822
H	-1.1685	11.6281	-2.8026
C	0.2190	9.9617	-2.9593
H	0.3415	8.9454	-2.5203
H	1.0566	10.5903	-2.5861
C	0.3065	9.8678	-4.4886
H	0.3296	10.8944	-4.9194
C	-0.8981	9.1026	-5.0579
H	-0.8342	8.0370	-4.7404
H	-0.8495	9.1289	-6.1681
C	-2.2460	9.6850	-4.5941
H	-2.3953	10.7003	-5.0279
C	-2.2965	9.7829	-3.0626
H	-2.3057	8.7555	-2.6308
H	-3.2422	10.2840	-2.7601
C	-1.0795	11.4378	-0.1927
H	-1.0098	12.4556	-0.5598
C	-1.1717	11.1884	1.2649
C	-0.9055	9.9195	1.8362
C	-1.2243	9.6802	3.1846
C	-1.6872	10.7342	3.9854
H	-1.9050	10.5386	5.0267
C	-1.8642	12.0330	3.4653
C	-1.6174	12.2329	2.0886
H	-1.7940	13.1929	1.6258
C	-2.3409	13.1640	4.4007
C	-3.7277	12.8042	4.9776
H	-4.4530	12.6300	4.1544
H	-4.1141	13.6279	5.6168
H	-3.6851	11.8895	5.6047
C	-1.3308	13.3334	5.5581
H	-1.2656	12.4194	6.1836
H	-1.6329	14.1700	6.2251
H	-0.3184	13.5540	5.1559
C	-2.4671	14.5328	3.6889
H	-2.7946	15.3190	4.4034
H	-3.2239	14.4892	2.8759
H	-1.4894	14.8504	3.2672
C	-1.0592	8.3183	3.7406
H	-0.7820	7.5125	3.0709
C	-1.0924	6.7188	5.5517
H	-0.9279	5.9851	4.7277
C	0.1254	6.6645	6.4873
H	0.0018	7.3921	7.3201
H	1.0384	6.9430	5.9154
C	0.2913	5.2419	7.0434
H	0.4293	4.5474	6.1814
C	-0.9760	4.8106	7.8012
H	-1.1301	5.4651	8.6884
H	-0.8491	3.7657	8.1604
C	-2.2007	4.8840	6.8727
H	-2.0230	4.1917	6.0168
C	-2.3663	6.3063	6.3080
H	-3.2307	6.3246	5.6084
H	-2.5715	7.0249	7.1335
C	-4.1862	3.5344	7.1833
H	-3.9661	3.0535	6.2391
C	-5.3921	3.1204	7.9430
C	-6.0810	1.9287	7.6119
C	-7.3274	1.6484	8.2168
C	-7.8121	2.4963	9.2212
H	-8.7558	2.2507	9.6911
C	-7.1051	3.6464	9.6275
C	-5.9006	3.9522	8.9562
H	-5.3494	4.8486	9.1964
C	-7.6764	4.5294	10.7586
C	-6.7773	5.7436	11.0995
H	-7.2185	6.3407	11.9270
H	-6.6752	6.4201	10.2242
H	-5.7695	5.4094	11.4288
C	-7.8259	3.6881	12.0455
H	-8.5505	2.8572	11.9101
H	-8.1945	4.3140	12.8864
H	-6.8461	3.2521	12.3367
C	-9.0593	5.0748	10.3401
H	-9.4689	5.7524	11.1210
H	-9.7944	4.2568	10.1929
H	-8.9773	5.6468	9.3901
C	2.5094	4.4854	7.6379
H	2.5412	3.9356	6.7041
C	3.6722	4.4021	8.5525
C	4.8157	3.6876	8.1523
C	5.8841	3.5026	9.0632
C	5.8515	4.1615	10.2997
H	6.6896	4.0357	10.9723
C	4.7493	4.9517	10.6905
C	3.6483	5.0320	9.8077
H	2.7640	5.5887	10.0773
C	4.7800	5.6786	12.0525
C	3.5060	6.5155	12.3279
H	3.5787	7.0319	13.3095
H	2.6037	5.8663	12.3620
H	3.3691	7.2974	11.5494
C	4.9136	4.6433	13.1903
H	4.0746	3.9149	13.1500
H	4.8947	5.1446	14.1823
H	5.8681	4.0810	13.1225
C	5.9862	6.6426	12.0905
H	6.0040	7.2158	13.0429
H	5.9289	7.3661	11.2476
H	6.9489	6.0954	12.0153
C	-3.7853	8.7298	-6.2339
H	-3.4553	9.4370	-6.9856
C	2.5201	9.5959	-5.5090
H	2.4818	10.6070	-5.8965
N	-1.1619	10.4513	-1.0282
N	-3.3188	8.7913	-5.0247
N	1.5220	9.1297	-4.8259
N	-1.2414	8.0663	5.0018
N	1.4537	5.1836	7.9300
N	-3.4040	4.4840	7.6028
O	-0.2874	8.8934	1.1085
H	0.3428	9.2182	0.3865
O	-5.5374	0.9958	6.7178
H	-4.5307	1.0178	6.6304
O	4.8769	3.2168	6.8336
H	5.8122	3.1716	6.4519
C	0.0260	-6.5430	-8.6453
H	0.1055	-7.2160	-9.5303
C	0.0235	-7.3832	-7.3592
H	-0.7751	-8.1545	-7.4312
H	-0.2220	-6.7242	-6.4953
C	1.3684	-8.0766	-7.0948
H	1.5405	-8.8604	-7.8682
C	2.5251	-7.0665	-7.1285
H	3.4874	-7.6128	-7.0261
H	2.4356	-6.3778	-6.2578
C	2.5523	-6.2402	-8.4214
H	2.7834	-6.9079	-9.2833
C	1.2005	-5.5534	-8.6511
H	1.2235	-5.0238	-9.6282
H	1.0386	-4.7888	-7.8566
C	-1.9810	-5.6343	-9.7214
H	-1.7495	-6.1584	-10.6410
C	-3.2173	-4.8205	-9.6314
C	-3.3856	-3.7961	-8.6667
C	-4.6489	-3.2029	-8.4905
C	-5.7044	-3.5482	-9.3483
H	-6.6633	-3.0693	-9.2119
C	-5.5358	-4.4974	-10.3783
C	-4.2792	-5.1336	-10.4933
H	-4.1099	-5.9022	-11.2333
C	-6.7206	-4.8190	-11.3150
C	-7.1648	-3.5304	-12.0428
H	-7.5363	-2.7649	-11.3303
H	-7.9885	-3.7452	-12.7579
H	-6.3138	-3.0955	-12.6103
C	-7.8997	-5.3708	-10.4832
H	-8.7481	-5.6558	-11.1426
H	-8.2791	-4.6186	-9.7609
H	-7.5817	-6.2711	-9.9145
C	-6.3770	-5.8719	-12.3967
H	-6.1036	-6.8441	-11.9318
H	-5.5401	-5.5216	-13.0388
H	-7.2503	-6.0565	-13.0596
C	-4.8447	-2.2157	-7.4017
H	-4.0332	-2.0466	-6.7035
C	-6.1563	-0.6035	-6.1644
H	-5.2847	-0.6346	-5.4674
C	-7.4166	-0.9647	-5.3591
H	-7.3051	-1.9898	-4.9421
H	-8.3108	-0.9551	-6.0218
C	-7.6020	0.0355	-4.2050
H	-6.6980	-0.0192	-3.5538
C	-7.7069	1.4730	-4.7444
H	-7.7979	2.1796	-3.8912
H	-8.6154	1.5764	-5.3792
C	-6.4503	1.8219	-5.5608
H	-5.5666	1.7297	-4.8856
C	-6.2691	0.8262	-6.7187
H	-7.1280	0.8966	-7.4241
H	-5.3400	1.0774	-7.2760
C	-5.6594	4.0964	-5.8019
H	-4.8206	3.8413	-5.1644
C	-5.7489	5.4740	-6.3436
C	-4.6973	6.3784	-6.1038
C	-4.7915	7.7066	-6.5805
C	-5.8831	8.0802	-7.3748
H	-5.9218	9.0940	-7.7519
C	-6.9351	7.1807	-7.6546
C	-6.8534	5.8779	-7.1109
H	-7.6380	5.1572	-7.2839
C	-8.1225	7.6485	-8.5241
C	-9.2000	6.5542	-8.7256
H	-9.6373	6.2468	-7.7505
H	-8.7714	5.6650	-9.2347
H	-10.0315	6.9318	-9.3593
C	-8.8102	8.8598	-7.8554
H	-8.1291	9.7321	-7.7877
H	-9.1439	8.5957	-6.8290
H	-9.7002	9.1801	-8.4399
C	-7.6067	8.0571	-9.9209
H	-6.9075	8.9173	-9.8617
H	-8.4496	8.3579	-10.5800
H	-7.0754	7.2071	-10.3990
C	-8.7300	-0.7278	-2.2050
H	-7.7570	-0.8902	-1.7592
C	-9.9454	-1.0407	-1.4148
C	-9.8638	-1.2333	-0.0147
C	-10.9873	-1.7143	0.6945
C	-12.2029	-1.8908	0.0207
H	-13.0596	-2.2354	0.5854
C	-12.3316	-1.6298	-1.3593
C	-11.1788	-1.2213	-2.0648
H	-11.2140	-1.0573	-3.1306
C	-13.7044	-1.8175	-2.0420
C	-13.6838	-1.4905	-3.5558
H	-13.3825	-0.4344	-3.7288
H	-14.6939	-1.6263	-4.0022
H	-12.9889	-2.1664	-4.0980
C	-14.7399	-0.8826	-1.3779
H	-14.8839	-1.1259	-0.3050
H	-15.7299	-0.9747	-1.8750
H	-14.4087	0.1763	-1.4538
C	-14.1616	-3.2844	-1.8864
H	-15.1221	-3.4568	-2.4185
H	-14.3219	-3.5530	-0.8212
H	-13.3982	-3.9732	-2.3091
C	4.6208	-5.0628	-9.0232
H	4.7925	-5.7461	-9.8472
C	1.4884	-9.9154	-5.4717
H	1.6591	-10.6322	-6.2662
N	-1.2134	-5.7716	-8.6862
N	3.5697	-5.2025	-8.2775
N	1.3219	-8.6622	-5.7575
N	-5.9568	-1.5574	-7.2569
N	-8.7988	-0.2974	-3.4293
N	-6.5453	3.1878	-6.0818
O	-2.3130	-3.3138	-7.9044
H	-1.4118	-3.3936	-8.3563
O	-3.5515	5.9125	-5.4431
H	-2.7155	6.4574	-5.6044
O	-8.6970	-0.9203	0.6973
H	-8.0986	-0.2317	0.2627
C	-8.2397	-3.8767	5.7262
H	-9.1226	-4.2118	6.3171
C	-8.6726	-3.5766	4.2840
H	-9.1890	-4.4687	3.8666
H	-7.7669	-3.3912	3.6630
C	-9.6080	-2.3628	4.1843
H	-10.5799	-2.6033	4.6745
C	-8.9835	-1.1349	4.8628
H	-9.7199	-0.3005	4.8510
H	-8.0940	-0.8068	4.2781
C	-8.5612	-1.4115	6.3121
H	-9.4666	-1.6010	6.9326
C	-7.6300	-2.6296	6.3822
H	-7.4030	-2.8530	7.4480
H	-6.6675	-2.3842	5.8779
C	-7.2748	-6.0677	6.2721
H	-8.1583	-6.3372	6.8404
C	-6.1624	-7.0435	6.1361
C	-4.9236	-6.6900	5.5527
C	-3.9365	-7.6814	5.3463
C	-4.1523	-8.9788	5.8361
H	-3.3847	-9.7254	5.6862
C	-5.3502	-9.3339	6.4920
C	-6.3557	-8.3494	6.6108
H	-7.3047	-8.5778	7.0719
C	-5.5227	-10.7714	7.0290
C	-4.4052	-11.0745	8.0519
H	-4.5342	-12.0881	8.4893
H	-4.4279	-10.3313	8.8789
H	-3.3995	-11.0420	7.5838
C	-5.4321	-11.7740	5.8582
H	-6.2012	-11.5393	5.0900
H	-5.6002	-12.8126	6.2149
H	-4.4350	-11.7480	5.3724
C	-6.8792	-11.0000	7.7396
H	-6.9926	-10.3151	8.6077
H	-6.9508	-12.0409	8.1250
H	-7.7267	-10.8491	7.0360
C	-2.7193	-7.3810	4.5540
H	-2.7045	-6.4951	3.9327
C	-0.4768	-7.8583	3.7877
H	-0.5594	-6.8386	3.3405
C	-0.2961	-8.8651	2.6384
H	-1.1841	-8.8225	1.9704
H	-0.2112	-9.8994	3.0422
C	0.9626	-8.5050	1.8319
H	0.8385	-7.4655	1.4464
C	2.2036	-8.5219	2.7404
H	3.0978	-8.2303	2.1466
H	2.3712	-9.5482	3.1377
C	2.0205	-7.5294	3.9012
H	1.8883	-6.5113	3.4650
C	0.7551	-7.8675	4.7087
H	0.8635	-8.8659	5.1895
H	0.6184	-7.1094	5.5112
C	3.9562	-6.5154	4.9451
H	3.7222	-5.5953	4.4232
C	5.1507	-6.5563	5.8232
C	6.0118	-5.4433	5.8692
C	7.1389	-5.4636	6.7247
C	7.4312	-6.6210	7.4562
H	8.3089	-6.6199	8.0898
C	6.5916	-7.7544	7.4129
C	5.4420	-7.6946	6.5925
H	4.7609	-8.5302	6.5340
C	6.9457	-8.9958	8.2618
C	5.9298	-10.1528	8.1059
H	5.8839	-10.5004	7.0508
H	4.9160	-9.8375	8.4346
H	6.2245	-11.0239	8.7300
C	8.3310	-9.5297	7.8365
H	8.5879	-10.4525	8.4021
H	9.1329	-8.7882	8.0313
H	8.3343	-9.7724	6.7521
C	6.9830	-8.6058	9.7557
H	7.1907	-9.4943	10.3901
H	6.0060	-8.1762	10.0664
H	7.7752	-7.8580	9.9648
C	1.0016	-9.0567	-0.5211
H	0.6957	-8.0396	-0.7287
C	1.2214	-9.9860	-1.6567
C	1.3793	-9.4883	-2.9724
C	1.4131	-10.3853	-4.0641
C	1.3956	-11.7654	-3.8211
H	1.4508	-12.4378	-4.6669
C	1.3118	-12.2884	-2.5135
C	1.2062	-11.3735	-1.4411
H	1.0936	-11.7260	-0.4269
C	1.3222	-13.8190	-2.3071
C	1.2295	-14.2359	-0.8189
H	1.2549	-15.3434	-0.7169
H	0.2770	-13.8845	-0.3664
H	2.0864	-13.8286	-0.2389
C	2.6352	-14.4041	-2.8733
H	2.6859	-15.5009	-2.6985
H	3.5132	-13.9306	-2.3814
H	2.7183	-14.2398	-3.9677
C	0.1200	-14.4471	-3.0441
H	-0.8310	-14.0000	-2.6822
H	0.0793	-15.5442	-2.8700
H	0.1831	-14.2885	-4.1407
C	-8.1449	0.4689	7.8322
H	-9.0353	0.2269	8.4014
C	-10.9306	-2.0316	2.1446
H	-11.8440	-2.2785	2.6743
N	-7.2127	-4.9129	5.6856
N	-7.8256	-0.2480	6.8007
N	-9.7964	-2.0516	2.7704
N	-1.6849	-8.1679	4.5543
N	1.1404	-9.4348	0.7148
N	3.1959	-7.5550	4.7742
O	-4.6901	-5.3475	5.2227
H	-3.7168	-5.0740	5.1959
O	5.7500	-4.3616	5.0165
H	6.5370	-3.7513	4.8397
O	1.5485	-8.1176	-3.2196
H	1.9121	-7.5807	-2.4436
