244

O	0.7703	7.6066	0.7370
H	-0.1840	7.6612	0.4100
C	1.5386	8.7553	0.5092
C	1.1802	9.7182	-0.4725
C	1.9104	10.9123	-0.5640
H	1.6355	11.6572	-1.3017
C	3.0146	11.1453	0.2611
C	3.3993	10.1727	1.1894
H	4.2672	10.3536	1.8126
C	2.6738	8.9747	1.3202
C	3.7849	12.4259	0.1244
H	4.2153	12.4950	-0.8966
H	4.6144	12.4853	0.8610
H	3.1061	13.2887	0.2920
C	0.0858	9.5198	-1.4479
H	-0.4324	10.3991	-1.8078
C	3.1021	7.9449	2.2969
H	2.5370	7.0265	2.3635
N	-0.1899	8.3433	-1.9259
N	4.1516	8.1311	3.0421
O	-0.8215	-0.3853	-7.4725
H	-1.7182	0.0060	-7.2175
C	-0.5489	-0.3676	-8.8467
C	0.3274	-1.3454	-9.3680
C	0.5250	-1.4282	-10.7575
H	1.1871	-2.1802	-11.1692
C	-0.1393	-0.5575	-11.6283
C	-0.9753	0.4342	-11.1076
H	-1.4568	1.1272	-11.7889
C	-1.1643	0.5674	-9.7234
C	0.0513	-0.6643	-13.1136
H	0.7560	-1.4813	-13.3783
H	0.4574	0.2905	-13.5073
H	-0.9247	-0.8732	-13.5987
C	1.0152	-2.2917	-8.4585
H	0.8555	-2.1970	-7.3951
C	-1.9534	1.7305	-9.2570
H	-2.6573	2.1791	-9.9472
N	1.7872	-3.2260	-8.9321
N	-1.7510	2.2620	-8.0881
O	7.4292	-1.2099	0.4887
H	7.0183	-2.1156	0.3139
C	8.4976	-0.8618	-0.3491
C	9.3800	0.1653	0.0679
C	10.5115	0.4642	-0.7057
H	11.1925	1.2438	-0.3847
C	10.7763	-0.2276	-1.8903
C	9.8913	-1.2194	-2.3206
H	10.0942	-1.7226	-3.2590
C	8.7403	-1.5384	-1.5773
C	11.9881	0.0961	-2.7148
H	12.5769	0.9264	-2.2693
H	11.6768	0.3985	-3.7367
H	12.6413	-0.7993	-2.7843
C	9.1827	0.9472	1.3130
H	9.9756	1.6184	1.6163
C	7.7783	-2.5204	-2.1371
H	6.7564	-2.5154	-1.7921
N	8.0638	0.9240	1.9753
N	8.1572	-3.3605	-3.0542
O	-0.2440	-1.0254	7.5787
H	-0.6243	-1.9439	7.4006
C	-0.4866	-0.5255	8.8649
C	-1.5389	-1.0243	9.6825
C	-1.6463	-0.5845	11.0101
H	-2.4393	-0.9710	11.6408
C	-0.7683	0.3765	11.5218
C	0.2338	0.8999	10.7026
H	0.8999	1.6522	11.1089
C	0.3874	0.4583	9.3763
C	-0.8993	0.8604	12.9364
H	-1.0685	1.9572	12.9418
H	0.0339	0.6344	13.4941
H	-1.7487	0.3716	13.4604
C	-2.5776	-1.9596	9.1973
H	-3.0484	-2.6148	9.9183
C	1.4806	1.0034	8.5345
H	1.5181	0.7422	7.4864
N	-2.9831	-1.9289	7.9634
N	2.4081	1.7437	9.0632
O	-0.9593	-7.6645	-0.5687
H	-1.7669	-7.0667	-0.4612
C	-1.0556	-8.9241	0.0380
C	-2.0237	-9.1933	1.0440
C	-2.1397	-10.4990	1.5552
H	-2.8721	-10.7184	2.3230
C	-1.2914	-11.5202	1.1170
C	-0.3109	-11.2405	0.1646
H	0.3517	-12.0365	-0.1573
C	-0.1783	-9.9558	-0.3833
C	-1.4090	-12.9090	1.6769
H	-0.4546	-13.1958	2.1666
H	-1.6245	-13.6248	0.8557
H	-2.2240	-12.9816	2.4273
C	-2.8527	-8.1156	1.6374
H	-2.5000	-7.0989	1.5823
C	0.8811	-9.7504	-1.4022
H	1.5218	-10.5886	-1.6401
N	-3.9383	-8.4069	2.2902
N	1.0677	-8.5987	-1.9728
O	-7.8470	0.7639	-0.6450
H	-8.0433	-0.2188	-0.5131
C	-8.8455	1.6295	-0.1795
C	-8.9035	2.9362	-0.7113
C	-9.9576	3.7913	-0.3401
H	-10.0105	4.7956	-0.7426
C	-10.9469	3.3611	0.5504
C	-10.8736	2.0766	1.0961
H	-11.6246	1.7634	1.8133
C	-9.8188	1.2137	0.7690
C	-12.0690	4.2747	0.9522
H	-11.9967	5.2599	0.4452
H	-12.0375	4.4426	2.0496
H	-13.0413	3.8113	0.6843
C	-7.8642	3.4013	-1.6608
H	-7.0246	2.7561	-1.8787
C	-9.7357	-0.0656	1.5061
H	-10.6576	-0.5113	1.8510
N	-7.9734	4.5544	-2.2515
N	-8.5837	-0.5584	1.8471
C	-3.0885	4.7714	-5.6851
C	-2.4939	3.6167	-6.1981
H	-2.1258	2.8520	-5.5256
C	-2.3901	3.4480	-7.5901
C	-2.8615	4.4658	-8.4548
H	-2.7509	4.3798	-9.5262
C	-3.4494	5.6287	-7.9411
H	-3.8033	6.4031	-8.6102
C	-3.5658	5.7801	-6.5599
C	-4.1852	6.9836	-5.8526
H	-4.5556	7.7760	-6.5391
C	-5.2615	6.3811	-4.9534
C	-6.5967	6.7770	-4.9206
H	-6.9551	7.5614	-5.5745
C	-7.4712	6.1545	-4.0210
H	-8.5075	6.4677	-3.9906
C	-7.0252	5.1302	-3.1646
C	-5.6657	4.7432	-3.1862
H	-5.2790	3.9960	-2.5072
C	-4.7918	5.3672	-4.0794
C	-3.2941	5.0811	-4.2017
H	-2.9237	4.2887	-3.5151
C	-2.6336	6.4456	-4.0017
C	-1.6670	6.7469	-3.0381
H	-1.3173	5.9770	-2.3620
C	-1.1738	8.0601	-2.9368
C	-1.6321	9.0504	-3.8414
H	-1.2343	10.0543	-3.8215
C	-2.6000	8.7477	-4.8062
H	-2.9515	9.5151	-5.4842
C	-3.1053	7.4521	-4.8808
C	3.2610	-6.6080	-4.2241
C	2.3245	-6.9442	-3.2452
H	1.8196	-6.1636	-2.6891
C	2.0465	-8.2954	-2.9818
C	2.7015	-9.3022	-3.7343
H	2.4786	-10.3495	-3.5876
C	3.6394	-8.9661	-4.7197
H	4.1324	-9.7417	-5.2908
C	3.9208	-7.6227	-4.9625
C	4.9050	-7.1001	-6.0066
H	5.4218	-7.8946	-6.5867
C	4.0770	-6.1398	-6.8593
C	3.9566	-6.1903	-8.2459
H	4.4579	-6.9630	-8.8143
C	3.1866	-5.2205	-8.9001
H	3.1002	-5.2561	-9.9791
C	2.5318	-4.2014	-8.1811
C	2.6558	-4.1533	-6.7727
H	2.1943	-3.3779	-6.1816
C	3.4209	-5.1225	-6.1205
C	3.6636	-5.1870	-4.6133
H	3.1477	-4.3923	-4.0327
C	5.1858	-5.1724	-4.4791
C	5.9212	-4.2393	-3.7448
H	5.3918	-3.4552	-3.2243
C	7.3323	-4.3183	-3.7406
C	7.9732	-5.3259	-4.4868
H	9.0552	-5.3774	-4.5033
C	7.2364	-6.2637	-5.2226
H	7.7437	-7.0278	-5.7976
C	5.8439	-6.1863	-5.2191
C	5.0547	4.9570	4.8424
C	4.3693	5.8288	3.9953
H	3.6093	5.4232	3.3456
C	4.7315	7.1956	3.9662
C	5.7666	7.6561	4.8048
H	6.0556	8.6994	4.7769
C	6.4557	6.7812	5.6533
H	7.2652	7.1459	6.2728
C	6.1102	5.4307	5.6617
C	6.8355	4.3386	6.4450
H	7.6671	4.7120	7.0817
C	5.7270	3.6262	7.2136
C	5.6868	3.4661	8.5970
H	6.4911	3.8372	9.2181
C	4.5822	2.8316	9.1768
H	4.5460	2.7169	10.2531
C	3.5227	2.3473	8.3865
C	3.5632	2.5165	6.9835
H	2.7492	2.1966	6.3492
C	4.6657	3.1514	6.4029
C	4.8388	3.4452	4.9115
H	4.0072	3.0756	4.2729
C	6.2074	2.8667	4.5551
C	6.4749	2.0394	3.4612
H	5.6685	1.7179	2.8144
C	7.8040	1.6912	3.1647
C	8.8469	2.1207	4.0220
H	9.8710	1.8247	3.8427
C	8.5796	2.9484	5.1196
H	9.3887	3.3026	5.7450
C	7.2661	3.3385	5.3739
C	-5.1355	-3.5639	5.4141
C	-4.0970	-2.8450	6.0027
H	-3.3351	-2.3867	5.3838
C	-4.0465	-2.7143	7.4000
C	-5.0631	-3.3014	8.1939
H	-5.0741	-3.1839	9.2683
C	-6.1103	-4.0211	7.6022
H	-6.8886	-4.4574	8.2159
C	-6.1502	-4.1494	6.2142
C	-7.2401	-4.8689	5.4197
H	-8.0367	-5.3241	6.0478
C	-6.4761	-5.8676	4.5541
C	-6.6833	-7.2454	4.5405
H	-7.4630	-7.6899	5.1442
C	-5.8488	-8.0523	3.7575
H	-5.9969	-9.1259	3.7667
C	-4.8040	-7.4979	2.9931
C	-4.6205	-6.0942	2.9811
H	-3.8408	-5.6224	2.4030
C	-5.4535	-5.2892	3.7604
C	-5.3239	-3.7736	3.9139
H	-4.5256	-3.3172	3.2883
C	-6.7249	-3.2308	3.6393
C	-7.0246	-2.1822	2.7687
H	-6.2356	-1.7147	2.1930
C	-8.3441	-1.7085	2.6769
C	-9.3591	-2.3135	3.4603
H	-10.3780	-1.9576	3.4391
C	-9.0576	-3.3659	4.3360
H	-9.8329	-3.7995	4.9534
C	-7.7418	-3.8149	4.4343
