146

O	4.9619	-6.5515	-4.4138
H	5.4068	-6.3618	-3.5271
N	4.7216	-4.1538	-2.8689
O	-4.9596	-6.7362	-4.3716
H	-5.4287	-5.8592	-4.5515
N	-4.7780	-4.3269	-2.8121
O	4.7581	6.7867	-4.3494
H	5.3521	6.6145	-3.5500
N	4.7138	4.4986	-2.6178
O	-4.8830	7.5340	-2.1007
H	-5.2400	6.8827	-1.4158
N	-4.7588	4.5651	-1.9594
N	4.8236	0.0246	4.9913
O	-4.7868	-1.4520	7.6499
H	-5.1319	-1.8786	8.5017
N	-4.7160	-0.6761	5.0663
C	3.5404	-4.6174	-2.5910
H	2.9892	-4.2297	-1.7434
C	2.8730	-5.6067	-3.4707
C	3.5696	-6.4261	-4.3998
C	2.8464	-7.1880	-5.3218
H	3.3722	-7.7932	-6.0494
C	1.4522	-7.2065	-5.2970
H	0.9300	-7.8015	-6.0349
C	0.7436	-6.4699	-4.3341
C	1.4688	-5.6727	-3.4266
H	0.9392	-5.0883	-2.6844
C	-3.6048	-4.2393	-3.3641
H	-3.0740	-3.2952	-3.3633
C	-2.9065	-5.4342	-3.8917
C	-3.5703	-6.6360	-4.2537
C	-2.8154	-7.7736	-4.5547
H	-3.3161	-8.7005	-4.8062
C	-1.4214	-7.7245	-4.5653
H	-0.8745	-8.6304	-4.7907
C	-0.7453	-6.5253	-4.2883
C	-1.5025	-5.3862	-3.9547
H	-0.9975	-4.4555	-3.7275
C	3.5980	5.0112	-2.1922
H	3.1537	4.6428	-1.2744
C	2.8393	6.0075	-2.9870
C	3.3886	6.7428	-4.0710
C	2.5412	7.4999	-4.8859
H	2.9500	8.0419	-5.7301
C	1.1762	7.5922	-4.6110
H	0.5531	8.1764	-5.2768
C	0.6261	6.9382	-3.4965
C	1.4733	6.1541	-2.6908
H	1.0672	5.6388	-1.8293
C	-3.5256	4.8806	-1.6950
H	-2.9084	4.2388	-1.0814
C	-2.8869	6.0766	-2.2812
C	-3.5637	7.3024	-2.5047
C	-2.8767	8.3650	-3.1014
H	-3.3863	9.3046	-3.2750
C	-1.5242	8.2506	-3.4272
H	-1.0177	9.1141	-3.8398
C	-0.8271	7.0558	-3.1814
C	-1.5281	5.9736	-2.6206
H	-1.0229	5.0268	-2.4691
O	4.9601	0.4706	7.6483
H	5.3267	0.7873	8.5388
C	3.6162	-0.4095	5.1959
H	3.0588	-0.8654	4.3869
C	2.9364	-0.2644	6.5032
C	3.5906	0.1883	7.6701
C	2.8540	0.3473	8.8576
H	3.3406	0.6968	9.7589
C	1.4833	0.0781	8.8887
H	0.9379	0.2454	9.8085
C	0.8210	-0.3715	7.7354
C	1.5651	-0.5607	6.5576
H	1.0718	-0.9329	5.6686
C	-3.5031	-0.2668	5.2944
H	-2.9663	0.2889	4.5370
C	-2.7912	-0.5746	6.5565
C	-3.4174	-1.1722	7.6730
C	-2.6513	-1.4789	8.8111
H	-3.1152	-1.9400	9.6733
C	-1.2799	-1.2130	8.8411
H	-0.7116	-1.4939	9.7197
C	-0.6458	-0.6200	7.7384
C	-1.4188	-0.2850	6.6132
H	-0.9473	0.1972	5.7657
C	7.4838	0.1004	-0.1299
H	8.5953	0.0997	-0.1484
C	4.8124	0.1015	-0.0877
H	3.7005	0.1018	-0.0704
C	-7.4919	-0.1123	0.0382
H	-8.6035	-0.1108	0.0459
C	-4.8202	-0.1176	0.0188
H	-3.7085	-0.1204	0.0117
C	5.4052	-3.1203	-2.1439
C	6.8129	-3.0944	-2.1848
H	7.3492	-3.8643	-2.7235
C	7.5364	-2.0877	-1.5301
H	8.6178	-2.0809	-1.5665
C	6.8439	-1.0863	-0.8504
C	5.4254	-1.0882	-0.8243
C	4.7062	-2.0992	-1.4640
H	3.6253	-2.0639	-1.4592
C	5.4098	3.4269	-1.9650
C	6.8162	3.3955	-2.0234
H	7.3523	4.1909	-2.5268
C	7.5390	2.3537	-1.4255
H	8.6210	2.3444	-1.4688
C	6.8465	1.3220	-0.7916
C	5.4289	1.3258	-0.7610
C	4.7116	2.3743	-1.3363
H	3.6293	2.3509	-1.3248
C	5.4895	0.0150	3.7165
C	6.8978	0.0408	3.6876
H	7.4545	0.0403	4.6165
C	7.5957	0.0584	2.4708
H	8.6780	0.0708	2.4624
C	6.8778	0.0661	1.2736
C	5.4603	0.0643	1.2927
C	4.7682	0.0452	2.5018
H	3.6883	0.0851	2.4848
C	-5.4580	-3.2491	-2.1490
C	-6.8657	-3.2595	-2.1093
H	-7.4113	-4.0502	-2.6086
C	-7.5766	-2.2552	-1.4357
H	-8.6586	-2.2723	-1.4149
C	-6.8709	-1.2483	-0.7773
C	-5.4534	-1.2459	-0.7895
C	-4.7470	-2.2350	-1.4722
H	-3.6662	-2.2337	-1.4378
C	-5.4367	3.3873	-1.4850
C	-6.8450	3.3714	-1.5001
H	-7.3875	4.2336	-1.8682
C	-7.5631	2.2634	-1.0241
H	-8.6452	2.2719	-1.0282
C	-6.8645	1.1577	-0.5390
C	-5.4469	1.1525	-0.5454
C	-4.7350	2.2509	-1.0215
H	-3.6554	2.2000	-1.0361
C	-5.4113	-0.5077	3.8186
C	-6.8197	-0.5293	3.8189
H	-7.3557	-0.6444	4.7533
C	-7.5456	-0.3952	2.6253
H	-8.6276	-0.4060	2.6410
C	-6.8549	-0.2538	1.4218
C	-5.4372	-0.2552	1.4080
C	-4.7179	-0.3870	2.5932
H	-3.6382	-0.4243	2.5475
