146

O	4.9205	-7.6935	-1.9031
H	5.3684	-7.2137	-1.1354
N	4.6952	-4.9104	-1.2737
O	-5.0017	-7.8006	-1.7944
H	-5.4670	-7.0360	-2.2637
N	-4.8050	-5.0036	-1.1555
O	4.7799	4.8592	-6.4153
H	5.3750	4.9684	-5.6056
N	4.7289	3.3037	-4.0042
O	-4.8522	6.3827	-4.5535
H	-5.2107	6.0076	-3.6866
N	-4.7417	3.6416	-3.4030
N	4.8353	1.7090	4.6775
O	-4.7757	1.2838	7.6869
H	-5.1208	1.1768	8.6334
N	-4.7073	1.1265	4.9938
C	3.5125	-5.2444	-0.8530
H	2.9651	-4.5867	-0.1894
C	2.8383	-6.4718	-1.3398
C	3.5288	-7.5637	-1.9321
C	2.7999	-8.5917	-2.5366
H	3.3212	-9.4124	-3.0129
C	1.4057	-8.5932	-2.5062
H	0.8790	-9.4025	-2.9950
C	0.7029	-7.5675	-1.8537
C	1.4340	-6.5112	-1.2749
H	0.9088	-5.7051	-0.7778
C	-3.6327	-5.1167	-1.7047
H	-3.0974	-4.2323	-2.0279
C	-2.9413	-6.4237	-1.7911
C	-3.6116	-7.6733	-1.7187
C	-2.8628	-8.8491	-1.6119
H	-3.3684	-9.8035	-1.5301
C	-1.4686	-8.8139	-1.6395
H	-0.9265	-9.7450	-1.5410
C	-0.7861	-7.5960	-1.7909
C	-1.5372	-6.4076	-1.8675
H	-1.0273	-5.4581	-1.9735
C	3.6165	3.9370	-3.7795
H	3.1727	3.9079	-2.7907
C	2.8607	4.6044	-4.8672
C	3.4109	4.9206	-6.1379
C	2.5652	5.3569	-7.1626
H	2.9746	5.5744	-8.1416
C	1.2013	5.5450	-6.9351
H	0.5794	5.8687	-7.7605
C	0.6507	5.3156	-5.6637
C	1.4961	4.8508	-4.6385
H	1.0895	4.6643	-3.6522
C	-3.5065	4.0222	-3.2635
H	-2.8909	3.6264	-2.4674
C	-2.8635	4.9413	-4.2245
C	-3.5350	6.0197	-4.8544
C	-2.8444	6.8097	-5.7796
H	-3.3499	7.6355	-6.2645
C	-1.4932	6.5835	-6.0473
H	-0.9836	7.2506	-6.7312
C	-0.8012	5.5417	-5.4071
C	-1.5060	4.7211	-4.5089
H	-1.0049	3.8809	-4.0423
O	4.9802	3.0382	7.0205
H	5.3504	3.6390	7.7483
C	3.6264	1.3777	5.0192
H	3.0650	0.6750	4.4159
C	2.9503	1.9657	6.1980
C	3.6094	2.7876	7.1386
C	2.8763	3.3480	8.2000
H	3.3667	3.9827	8.9266
C	1.5045	3.1129	8.3223
H	0.9620	3.5882	9.1294
C	0.8373	2.2987	7.3934
C	1.5778	1.7132	6.3515
H	1.0807	1.0614	5.6443
C	-3.4919	1.5828	5.0670
H	-2.9542	1.8424	4.1647
C	-2.7786	1.7227	6.3577
C	-3.4049	1.5473	7.6118
C	-2.6376	1.6453	8.7857
H	-3.1016	1.5103	9.7540
C	-1.2649	1.8983	8.7219
H	-0.6959	1.9326	9.6432
C	-0.6305	2.0739	7.4824
C	-1.4047	2.0069	6.3109
H	-0.9329	2.1669	5.3493
C	7.4839	0.0106	-0.1608
H	8.5953	-0.0023	-0.1785
C	4.8126	0.0401	-0.1200
H	3.7007	0.0520	-0.1032
C	-7.4922	-0.0531	0.0788
H	-8.6038	-0.0432	0.0861
C	-4.8206	-0.0787	0.0608
H	-3.7090	-0.0897	0.0545
C	5.3854	-3.6945	-0.9473
C	6.7931	-3.6915	-0.9955
H	7.3244	-4.6023	-1.2378
C	7.5228	-2.5252	-0.7260
H	8.6042	-2.5370	-0.7631
C	6.8366	-1.3479	-0.4304
C	5.4183	-1.3333	-0.4044
C	4.6928	-2.4985	-0.6584
H	3.6120	-2.4580	-0.6653
C	5.4213	2.5171	-3.0239
C	6.8274	2.4602	-3.0688
H	7.3661	3.0320	-3.8147
C	7.5466	1.6828	-2.1504
H	8.6285	1.6535	-2.1885
C	6.8508	0.9345	-1.2008
C	5.4333	0.9560	-1.1726
C	4.7197	1.7476	-2.0720
H	3.6373	1.7352	-2.0526
C	5.4982	1.2595	3.4829
C	6.9065	1.2664	3.4462
H	7.4654	1.5814	4.3186
C	7.6017	0.8620	2.2966
H	8.6840	0.8652	2.2839
C	6.8810	0.4626	1.1698
C	5.4636	0.4750	1.1892
C	4.7742	0.8751	2.3319
H	3.6945	0.9125	2.3029
C	-5.4783	-3.7603	-0.9017
C	-6.8859	-3.7490	-0.8600
H	-7.4364	-4.6601	-1.0576
C	-7.5905	-2.5710	-0.5711
H	-8.6726	-2.5742	-0.5450
C	-6.8786	-1.4031	-0.2982
C	-5.4611	-1.4125	-0.3113
C	-4.7609	-2.5793	-0.6139
H	-3.6801	-2.5720	-0.5827
C	-5.4240	2.7014	-2.5531
C	-6.8325	2.6886	-2.5611
H	-7.3717	3.3752	-3.2021
C	-7.5547	1.8148	-1.7337
H	-8.6367	1.8270	-1.7398
C	-6.8601	0.9387	-0.8992
C	-5.4427	0.9242	-0.9043
C	-4.7267	1.7891	-1.7286
H	-3.6473	1.7306	-1.7254
C	-5.4047	0.8606	3.7643
C	-6.8131	0.8478	3.7729
H	-7.3475	1.0628	4.6904
C	-7.5412	0.5684	2.6061
H	-8.6232	0.5692	2.6251
C	-6.8527	0.2850	1.4267
C	-5.4350	0.2715	1.4133
C	-4.7135	0.5502	2.5714
H	-3.6342	0.4938	2.5407
