164

O	-6.0645	-4.7570	6.4227
H	-6.5374	-4.7855	5.5309
O	5.9867	-4.6340	6.4179
H	6.3032	-4.6234	5.4572
N	-5.8101	-2.9257	4.1967
N	5.6613	-2.5100	4.4639
C	-4.6556	-3.5052	4.0644
H	-4.1247	-3.4511	3.1213
C	-3.9859	-4.1808	5.1986
C	-4.6698	-4.6841	6.3383
C	-3.9334	-5.1872	7.4164
H	-4.4478	-5.5599	8.2932
C	-2.5412	-5.2621	7.3576
H	-1.9969	-5.6837	8.1947
C	-1.8567	-4.8272	6.2157
C	-2.5847	-4.2851	5.1457
H	-2.0529	-3.9206	4.2740
C	-0.3582	-4.9595	6.1285
H	-0.0188	-4.7771	5.0859
H	-0.0686	-6.0015	6.3895
C	4.4593	-3.0011	4.4216
H	3.8469	-2.8912	3.5355
C	3.8620	-3.6578	5.6041
C	4.6271	-4.3476	6.5801
C	4.0000	-4.8227	7.7376
H	4.5813	-5.3363	8.4924
C	2.6211	-4.6886	7.9075
H	2.1587	-5.0887	8.8009
C	1.8430	-4.0750	6.9170
C	2.4713	-3.5555	5.7751
H	1.8732	-3.0467	5.0268
C	0.3474	-3.9748	7.0710
H	0.0525	-4.1957	8.1200
H	0.0237	-2.9346	6.8459
C	-7.8547	-0.7703	1.1682
C	-8.5747	-1.4373	2.1587
H	-9.6571	-1.4227	2.1558
C	-7.8797	-2.1309	3.1590
H	-8.4370	-2.6529	3.9272
C	-6.4718	-2.1812	3.1619
C	-5.7461	-1.4801	2.1746
H	-4.6651	-1.4606	2.1787
C	-6.4374	-0.7800	1.1870
C	6.3235	-0.5494	1.3273
C	5.6142	-1.1849	2.3476
H	4.5341	-1.1741	2.3206
C	6.3245	-1.8128	3.3967
C	7.7310	-1.7511	3.4186
H	8.2772	-2.2176	4.2288
C	8.4435	-1.1190	2.3912
H	9.5254	-1.0962	2.4110
C	7.7416	-0.5278	1.3419
O	-5.8718	-3.6429	-6.7721
H	-6.2863	-4.2320	-7.4851
O	6.1807	-3.7393	-6.5697
H	6.6892	-4.2004	-7.3160
N	-5.6560	-2.2081	-4.5219
N	5.7446	-2.4569	-4.2754
C	-4.4014	-2.0313	-4.8149
H	-3.7858	-1.3749	-4.2150
C	-3.7635	-2.7105	-5.9666
C	-4.4858	-3.4955	-6.8945
C	-3.8023	-4.1245	-7.9494
H	-4.3423	-4.7279	-8.6693
C	-2.4199	-3.9855	-8.0838
H	-1.9137	-4.4819	-8.9027
C	-1.6942	-3.2112	-7.1692
C	-2.3730	-2.5717	-6.1209
H	-1.8117	-1.9767	-5.4094
C	-0.1986	-3.0749	-7.3017
H	0.1664	-2.2588	-6.6398
H	0.0578	-2.7900	-8.3446
C	4.4687	-2.5886	-4.4868
H	3.7469	-2.1693	-3.8008
C	3.9503	-3.3330	-5.6601
C	4.7918	-3.8886	-6.6526
C	4.2244	-4.5949	-7.7267
H	4.8569	-5.0255	-8.4928
C	2.8408	-4.7520	-7.8238
H	2.4295	-5.3026	-8.6606
C	1.9976	-4.2025	-6.8493
C	2.5581	-3.4981	-5.7736
H	1.9033	-3.0864	-5.0143
C	0.5040	-4.3878	-6.9335
H	0.2508	-5.1599	-7.6927
H	0.1330	-4.7568	-5.9519
C	-7.8111	-0.5845	-1.2405
C	-8.4912	-1.1151	-2.3359
H	-9.5735	-1.1244	-2.3593
C	-7.7564	-1.6431	-3.4071
H	-8.2869	-2.0575	-4.2562
C	-6.3477	-1.6364	-3.3982
C	-5.6634	-1.1131	-2.2781
H	-4.5854	-1.1301	-2.2069
C	-6.3931	-0.5862	-1.2138
C	6.3452	-0.5493	-1.0845
C	5.6532	-1.1693	-2.1245
H	4.5742	-1.1678	-2.0945
C	6.3791	-1.7821	-3.1736
C	7.7879	-1.7528	-3.1480
H	8.3480	-2.2215	-3.9468
C	8.4827	-1.1308	-2.1023
H	9.5651	-1.1209	-2.0960
C	7.7635	-0.5321	-1.0705
O	-6.0275	7.7493	0.2516
H	-6.4694	8.6503	0.1084
O	6.0135	7.8797	0.0109
H	6.5032	8.7675	-0.0027
N	-5.7380	5.0934	0.3694
N	5.6272	5.2470	0.0234
C	-4.4859	5.2891	0.6570
H	-3.8452	4.4585	0.9182
C	-3.8848	6.6438	0.6376
C	-4.6420	7.8201	0.4274
C	-3.9928	9.0665	0.4011
H	-4.5589	9.9744	0.2418
C	-2.6108	9.1511	0.5775
H	-2.1302	10.1221	0.5484
C	-1.8523	7.9928	0.7879
C	-2.4956	6.7470	0.8246
H	-1.9079	5.8504	0.9806
C	-0.3574	8.0801	0.9601
H	0.0346	7.1179	1.3553
H	-0.1156	8.8647	1.7107
C	4.3470	5.4691	-0.0130
H	3.6425	4.6506	-0.0056
C	3.8026	6.8459	-0.0876
C	4.6234	7.9996	-0.0817
C	4.0311	9.2713	-0.1712
H	4.6467	10.1618	-0.1687
C	2.6454	9.4066	-0.2625
H	2.2147	10.3982	-0.3295
C	1.8238	8.2728	-0.2625
C	2.4082	7.0001	-0.1781
H	1.7701	6.1233	-0.1909
C	0.3271	8.4079	-0.3736
H	0.0522	9.4417	-0.6791
H	-0.0371	7.7200	-1.1686
C	-7.8304	1.4065	0.1251
C	-8.5299	2.6103	0.1865
H	-9.6119	2.6203	0.1608
C	-7.8145	3.8132	0.2743
H	-8.3586	4.7484	0.3151
C	-6.4059	3.8212	0.3091
C	-5.7015	2.5973	0.2345
H	-4.6222	2.5579	0.2142
C	-6.4132	1.4013	0.1509
C	6.3118	1.5443	0.1175
C	5.5910	2.7392	0.0896
H	4.5133	2.6881	0.0731
C	6.2899	3.9702	0.0747
C	7.6979	3.9674	0.0963
H	8.2377	4.9053	0.0847
C	8.4208	2.7684	0.1245
H	9.5030	2.7846	0.1340
C	7.7293	1.5583	0.1315
C	-8.4605	0.0187	0.0063
H	-9.5714	0.0214	-0.0132
C	-5.7885	0.0103	0.0533
H	-4.6767	0.0080	0.0737
C	8.3713	0.1735	0.1408
H	9.4836	0.1858	0.1510
C	5.7006	0.1429	0.1155
H	4.5883	0.1297	0.1056
