648

C	-5.6909	15.6271	-0.9169
C	-5.5182	16.9882	-1.2396
C	-6.5826	17.8741	-1.0010
H	-6.4786	18.9266	-1.2343
C	-7.7887	17.4252	-0.4515
H	-8.5830	18.1428	-0.2886
C	-7.9778	16.0728	-0.1198
C	-6.9179	15.1710	-0.3447
C	-4.6469	14.5166	-1.1146
H	-3.6851	14.8339	-1.5674
C	-4.2299	17.5201	-1.8209
H	-4.3975	18.5170	-2.2841
H	-3.8683	16.8551	-2.6335
C	-3.1614	17.6737	-0.7408
H	-3.5023	18.3937	0.0335
H	-2.2265	18.0598	-1.1966
H	-2.9415	16.7000	-0.2551
C	-9.2996	15.6335	0.4627
H	-9.8638	16.5101	0.8496
H	-9.1342	14.9614	1.3314
C	-10.1628	14.9413	-0.5896
H	-9.6387	14.0657	-1.0250
H	-10.4136	15.6532	-1.4046
H	-11.1068	14.5897	-0.1221
C	-6.9344	13.6678	-0.0265
H	-7.8693	13.2828	0.4284
C	-14.9333	3.0253	-6.8977
C	-16.2601	3.4972	-6.8291
C	-17.0792	3.3632	-7.9629
H	-18.1040	3.7114	-7.9388
C	-16.6014	2.7643	-9.1344
H	-17.2728	2.6678	-9.9786
C	-15.2863	2.2771	-9.2170
C	-14.4462	2.4143	-8.0935
C	-13.8939	3.0977	-5.7692
H	-14.2377	3.5677	-4.8253
C	-16.8276	4.1218	-5.5771
H	-17.7420	4.7075	-5.8174
H	-16.1034	4.8396	-5.1383
C	-17.2035	3.0498	-4.5572
H	-16.3211	2.4395	-4.2769
H	-17.9855	2.3812	-4.9785
H	-17.6052	3.5317	-3.6415
C	-14.8183	1.6218	-10.4936
H	-13.8118	1.9987	-10.7748
H	-15.4963	1.8859	-11.3351
C	-14.8007	0.1011	-10.3563
H	-14.1193	-0.2187	-9.5408
H	-14.4505	-0.3522	-11.3072
H	-15.8236	-0.2733	-10.1389
C	-12.9829	1.9562	-8.0059
H	-12.5708	1.4802	-8.9188
C	-13.5936	-6.1340	6.9861
C	-14.3427	-7.2100	7.5040
C	-15.6346	-6.9545	7.9935
H	-16.2354	-7.7616	8.3953
C	-16.1757	-5.6648	7.9683
H	-17.1732	-5.5122	8.3631
C	-15.4474	-4.5812	7.4504
C	-14.1515	-4.8199	6.9473
C	-12.1618	-6.2189	6.4340
H	-11.6935	-7.2238	6.4598
C	-13.8056	-8.6200	7.5388
H	-14.3887	-9.2380	8.2555
H	-12.7571	-8.6278	7.9032
C	-13.8972	-9.2744	6.1613
H	-13.5060	-10.3122	6.2177
H	-13.3018	-8.7113	5.4138
H	-14.9563	-9.3120	5.8266
C	-16.0692	-3.2053	7.4561
H	-17.1747	-3.2824	7.5484
H	-15.8745	-2.6862	6.4951
C	-15.5522	-2.3718	8.6269
H	-16.0139	-1.3628	8.5950
H	-14.4493	-2.2589	8.5777
H	-15.8256	-2.8543	9.5894
C	-13.2142	-3.7649	6.3408
H	-13.6186	-2.7347	6.2856
C	-5.2704	7.2176	14.3731
C	-5.0756	7.6508	15.7003
C	-6.1480	8.2642	16.3690
H	-6.0294	8.6094	17.3889
C	-7.3802	8.4599	15.7345
H	-8.1747	8.9494	16.2840
C	-7.5858	8.0517	14.4066
C	-6.5263	7.4199	13.7247
C	-4.2241	6.5142	13.4947
H	-3.2368	6.3385	13.9687
C	-3.7569	7.4826	16.4172
H	-3.3564	6.4608	16.2557
H	-3.8973	7.5941	17.5147
C	-2.7451	8.5311	15.9604
H	-2.5504	8.4515	14.8719
H	-1.7870	8.3830	16.5020
H	-3.1247	9.5517	16.1857
C	-8.9198	8.3134	13.7508
H	-9.6952	8.5194	14.5203
H	-9.2625	7.4158	13.1952
C	-8.8428	9.5217	12.8198
H	-8.0937	9.3586	12.0177
H	-8.5623	10.4290	13.3954
H	-9.8340	9.6915	12.3491
C	-6.5728	6.8946	12.2813
H	-7.5353	7.0340	11.7488
C	-0.2982	8.6435	-14.3297
C	0.0196	9.7667	-15.1198
C	-0.3811	9.7746	-16.4662
H	-0.1489	10.6216	-17.0984
C	-1.0983	8.7046	-17.0144
H	-1.3999	8.7605	-18.0529
C	-1.4377	7.5846	-16.2383
C	-1.0278	7.5497	-14.8913
C	0.0785	8.4454	-12.8529
H	0.6471	9.2757	-12.3853
C	0.7676	10.9555	-14.5645
H	1.1830	11.5724	-15.3919
H	1.6362	10.6197	-13.9603
C	-0.1525	11.8428	-13.7293
H	-0.9767	12.2377	-14.3614
H	0.4255	12.7008	-13.3251
H	-0.5886	11.2777	-12.8800
C	-2.2299	6.4625	-16.8677
H	-1.7992	5.4791	-16.5870
H	-2.1720	6.5233	-17.9766
C	-3.7007	6.5350	-16.4644
H	-4.1412	7.4990	-16.7977
H	-3.8179	6.4464	-15.3643
H	-4.2592	5.7054	-16.9477
C	-1.2821	6.4012	-13.9044
H	-1.8439	5.5339	-14.3077
C	8.1998	12.9470	6.3515
C	8.8059	14.2139	6.2410
C	9.4640	14.7428	7.3638
H	9.9330	15.7175	7.3111
C	9.5217	14.0335	8.5697
H	10.0438	14.4785	9.4068
C	8.9229	12.7688	8.6986
C	8.2492	12.2271	7.5857
C	7.4476	12.2106	5.2327
H	7.3978	12.7368	4.2577
C	8.7593	15.0192	4.9641
H	8.9786	14.3723	4.0888
H	9.5438	15.8064	4.9747
C	7.4039	15.7008	4.7951
H	7.3954	16.2828	3.8506
H	7.2199	16.3969	5.6413
H	6.5828	14.9549	4.7582
C	9.0155	12.0376	10.0180
H	8.0280	11.6151	10.2963
H	9.2935	12.7440	10.8305
C	10.0729	10.9365	9.9674
H	11.0669	11.3692	9.7253
H	9.8160	10.1720	9.2057
H	10.1358	10.4391	10.9587
C	7.5262	10.8733	7.5441
H	7.5367	10.2925	8.4886
C	-1.9993	10.6012	7.5567
C	-2.7264	11.1154	6.4704
H	-3.8045	11.0028	6.4402
C	-2.0614	11.7617	5.4164
C	-0.6652	11.8982	5.4573
H	-0.1479	12.3918	4.6413
C	0.0669	11.3837	6.5355
C	-0.6037	10.7401	7.5857
H	-0.0386	10.3367	8.4193
B	-2.7333	9.8483	8.7180
O	-2.0213	9.2609	9.8566
C	-3.0761	8.6696	10.5301
C	-2.9695	7.9260	11.7088
H	-2.0110	7.7751	12.1889
C	-4.1435	7.3731	12.2374
C	-5.3985	7.5749	11.5881
C	-5.4783	8.3247	10.4059
H	-6.4224	8.4747	9.8979
C	-4.2920	8.8620	9.8972
O	-4.1785	9.6042	8.7317
B	-2.8604	12.3012	4.1825
O	-4.3121	12.1582	4.0391
C	-4.4934	12.7237	2.7868
C	-5.7158	12.8492	2.1204
H	-6.6339	12.4960	2.5692
C	-5.7069	13.4449	0.8505
C	-4.4853	13.8972	0.2692
C	-3.2713	13.7544	0.9551
H	-2.3372	14.0873	0.5219
C	-3.3078	13.1638	2.2214
O	-2.2108	12.9393	3.0338
B	1.6284	11.4949	6.5502
O	2.3929	12.1311	5.4740
C	3.6830	11.8917	5.9135
C	4.8513	12.2677	5.2431
H	4.8080	12.8040	4.3042
C	6.0762	11.9143	5.8253
C	6.1172	11.1999	7.0597
C	4.9311	10.8331	7.7104
H	4.9479	10.2785	8.6394
C	3.7221	11.1964	7.1097
O	2.4614	10.8977	7.5971
C	-7.9737	7.5308	-7.2339
C	-7.8280	8.4870	-6.2199
H	-8.5691	8.5525	-5.4302
C	-6.7220	9.3501	-6.2134
C	-5.7625	9.2560	-7.2339
H	-4.9036	9.9189	-7.2297
C	-5.9020	8.2989	-8.2512
C	-7.0100	7.4399	-8.2472
H	-7.1169	6.6941	-9.0279
B	-9.1884	6.5455	-7.2189
O	-9.3651	5.4854	-8.2144
C	-10.4911	4.8583	-7.7092
C	-11.0994	3.7249	-8.2549
H	-10.7117	3.2607	-9.1523
C	-12.2131	3.2015	-7.5858
C	-12.6990	3.8121	-6.3918
C	-12.0688	4.9472	-5.8633
H	-12.4169	5.4103	-4.9491
C	-10.9598	5.4514	-6.5501
O	-10.1975	6.5378	-6.1568
B	-6.5520	10.3913	-5.0561
O	-7.5051	10.5141	-3.9489
C	-6.8853	11.4975	-3.1963
C	-7.3595	12.0114	-1.9848
H	-8.2854	11.6579	-1.5529
C	-6.5884	12.9966	-1.3512
C	-5.3676	13.4494	-1.9316
C	-4.9129	12.9165	-3.1469
H	-3.9860	13.2470	-3.5940
C	-5.6991	11.9355	-3.7587
O	-5.4002	11.2913	-4.9482
B	-4.8164	8.1638	-9.3713
O	-3.6193	9.0074	-9.4361
C	-2.9813	8.4462	-10.5312
C	-1.7502	8.8550	-11.0511
H	-1.2053	9.6798	-10.6100
C	-1.2452	8.1546	-12.1548
C	-1.9717	7.0625	-12.7168
C	-3.2051	6.6735	-12.1786
H	-3.7642	5.8440	-12.5934
C	-3.6879	7.3892	-11.0789
O	-4.8734	7.1327	-10.4118
C	-7.1431	-2.4584	10.6268
C	-7.0682	-1.0975	10.9538
H	-7.8595	-0.4233	10.6423
C	-5.9680	-0.5996	11.6686
C	-4.9414	-1.4736	12.0605
H	-4.0865	-1.0916	12.6069
C	-5.0130	-2.8387	11.7405
C	-6.1168	-3.3259	11.0261
H	-6.1722	-4.3788	10.7699
B	-8.3515	-3.0027	9.7923
O	-8.4622	-4.4021	9.3745
C	-9.6228	-4.3435	8.6217
C	-10.2082	-5.4214	7.9510
H	-9.7676	-6.4083	7.9916
C	-11.3813	-5.1752	7.2259
C	-11.9426	-3.8648	7.1744
C	-11.3342	-2.7982	7.8517
H	-11.7481	-1.7997	7.8159
C	-10.1681	-3.0726	8.5735
O	-9.4297	-2.1444	9.2913
B	-5.8811	0.9282	12.0008
O	-6.9047	1.8915	11.5842
C	-6.3392	3.0687	12.0442
C	-6.8884	4.3456	11.8878
H	-7.8351	4.4882	11.3844
C	-6.1582	5.4319	12.3900
C	-4.9039	5.2287	13.0375
C	-4.3750	3.9373	13.1809
H	-3.4182	3.7705	13.6568
C	-5.1224	2.8703	12.6701
O	-4.7423	1.5368	12.6956
C	-10.9077	-5.8963	-3.0098
C	-11.1464	-5.9469	-1.6298
H	-10.8653	-6.8289	-1.0652
C	-11.7388	-4.8583	-0.9738
C	-12.0980	-3.7172	-1.7075
H	-12.5552	-2.8732	-1.2018
C	-11.8598	-3.6577	-3.0885
C	-11.2670	-4.7510	-3.7366
H	-11.0775	-4.7077	-4.8041
B	-11.9798	-4.9093	0.5695
O	-11.5943	-6.0523	1.4041
C	-11.9757	-5.5860	2.6507
C	-11.8259	-6.2772	3.8576
H	-11.3840	-7.2650	3.8838
C	-12.2592	-5.6389	5.0281
C	-12.8240	-4.3306	4.9779
C	-12.9608	-3.6590	3.7563
H	-13.3795	-2.6625	3.7043
C	-12.5267	-4.3172	2.6028
O	-12.5724	-3.7995	1.3195
B	-12.2379	-2.3718	-3.8986
O	-12.8337	-1.1843	-3.2807
C	-12.9283	-0.3529	-4.3848
C	-13.4243	0.9553	-4.3751
H	-13.7849	1.4077	-3.4604
C	-13.4248	1.6584	-5.5874
C	-12.9378	1.0486	-6.7819
C	-12.4474	-0.2640	-6.7648
H	-12.0670	-0.7335	-7.6625
C	-12.4542	-0.9430	-5.5430
O	-11.9914	-2.2323	-5.3373
B	3.8549	3.8187	-12.1452
O	2.6308	3.3748	-12.8176
C	1.9384	4.5727	-12.8861
C	0.6588	4.7404	-13.4207
H	0.1156	3.9030	-13.8400
C	0.1023	6.0266	-13.3859
C	0.8276	7.1180	-12.8235
C	2.1088	6.9223	-12.2874
H	2.6646	7.7396	-11.8470
C	2.6404	5.6303	-12.3334
O	3.8753	5.2517	-11.8342
B	10.2132	7.0909	3.7254
O	9.8941	7.0912	5.1554
C	9.2906	8.3320	5.2728
C	8.7590	8.8663	6.4498
H	8.7984	8.3154	7.3805
C	8.1702	10.1353	6.3767
C	8.1272	10.8486	5.1422
C	8.6623	10.2881	3.9749
H	8.6243	10.8128	3.0293
C	9.2417	9.0196	4.0723
O	9.8039	8.3114	3.0248
C	5.6889	-15.6271	0.9134
C	5.5170	-16.9869	1.2424
C	6.5818	-17.8727	1.0074
H	6.4790	-18.9247	1.2448
C	7.7889	-17.4256	0.4578
H	8.5843	-18.1427	0.2990
C	7.9776	-16.0743	0.1212
C	6.9177	-15.1723	0.3416
C	4.6451	-14.5175	1.1074
H	3.6831	-14.8337	1.5594
C	4.2288	-17.5165	1.8256
H	3.8673	-16.8479	2.6347
H	4.3978	-18.5105	2.2947
C	3.1601	-17.6760	0.7471
H	2.9245	-16.7014	0.2718
H	2.2321	-18.0813	1.2025
H	3.5100	-18.3836	-0.0345
C	9.3018	-15.6337	-0.4577
H	9.1390	-14.9669	-1.3302
H	9.8686	-16.5115	-0.8371
C	10.1602	-14.9351	0.5944
H	11.1204	-14.6174	0.1376
H	10.3788	-15.6307	1.4318
H	9.6469	-14.0369	0.9970
C	6.9343	-13.6702	0.0220
H	7.8695	-13.2838	-0.4324
C	14.9315	-3.0222	6.9064
C	16.2581	-3.4928	6.8325
C	17.0763	-3.3698	7.9672
H	18.0992	-3.7237	7.9429
C	16.6014	-2.7752	9.1421
H	17.2728	-2.6868	9.9873
C	15.2899	-2.2790	9.2255
C	14.4463	-2.4137	8.1034
C	13.8901	-3.0947	5.7793
H	14.2325	-3.5643	4.8349
C	16.8254	-4.1070	5.5756
H	16.1055	-4.8304	5.1369
H	17.7457	-4.6867	5.8089
C	17.1890	-3.0305	4.5550
H	17.6132	-3.5079	3.6469
H	17.9489	-2.3414	4.9817
H	16.2949	-2.4436	4.2596
C	14.8312	-1.6138	10.5011
H	15.5086	-1.8805	11.3416
H	13.8232	-1.9791	10.7872
C	14.8276	-0.0940	10.3583
H	14.1438	0.2290	9.5460
H	15.8525	0.2691	10.1328
H	14.4893	0.3672	11.3099
C	12.9821	-1.9539	8.0181
H	12.5727	-1.4775	8.9324
C	13.5959	6.1285	-6.9939
C	14.3419	7.2072	-7.5090
C	15.6390	6.9577	-7.9889
H	16.2402	7.7683	-8.3838
C	16.1856	5.6699	-7.9596
H	17.1870	5.5237	-8.3452
C	15.4565	4.5816	-7.4513
C	14.1573	4.8154	-6.9555
C	12.1668	6.2112	-6.4356
H	11.6966	7.2150	-6.4592
C	13.7992	8.6153	-7.5478
H	12.7525	8.6174	-7.9165
H	14.3814	9.2340	-8.2636
C	13.8823	9.2730	-6.1719
H	13.4811	10.3075	-6.2302
H	14.9404	9.3204	-5.8359
H	13.2909	8.7065	-5.4236
C	16.0806	3.2073	-7.4600
H	15.9093	2.6965	-6.4900
H	17.1836	3.2842	-7.5805
C	15.5368	2.3633	-8.6105
H	15.7763	2.8441	-9.5836
H	14.4374	2.2406	-8.5299
H	16.0075	1.3576	-8.5883
C	13.2220	3.7579	-6.3478
H	13.6296	2.7285	-6.2943
C	5.2667	-7.2117	-14.3768
C	5.0714	-7.6487	-15.7019
C	6.1425	-8.2652	-16.3698
H	6.0228	-8.6122	-17.3885
C	7.3739	-8.4613	-15.7358
H	8.1682	-8.9533	-16.2849
C	7.5814	-8.0520	-14.4078
C	6.5238	-7.4145	-13.7280
C	4.2211	-6.5078	-13.4979
H	3.2346	-6.3317	-13.9715
C	3.7521	-7.4831	-16.4176
H	3.8922	-7.5914	-17.5154
H	3.3488	-6.4618	-16.2552
C	2.7418	-8.5342	-15.9631
H	2.5382	-8.4480	-14.8765
H	3.1283	-9.5536	-16.1794
H	1.7874	-8.3939	-16.5144
C	8.9138	-8.3217	-13.7505
H	9.2636	-7.4219	-13.2025
H	9.6866	-8.5395	-14.5200
C	8.8282	-9.5214	-12.8107
H	9.8167	-9.6930	-12.3360
H	8.5447	-10.4318	-13.3806
H	8.0773	-9.3500	-12.0114
C	6.5721	-6.8869	-12.2854
H	7.5346	-7.0263	-11.7529
C	0.2984	-8.6402	14.3326
C	-0.0191	-9.7621	15.1232
C	0.3859	-9.7721	16.4686
H	0.1603	-10.6234	17.1001
C	1.0979	-8.6994	17.0187
H	1.3995	-8.7553	18.0573
C	1.4344	-7.5788	16.2427
C	1.0284	-7.5461	14.8933
C	-0.0798	-8.4431	12.8571
H	-0.6502	-9.2721	12.3913
C	-0.7706	-10.9484	14.5693
H	-1.6384	-10.6087	13.9667
H	-1.1876	-11.5627	15.3969
C	0.1459	-11.8376	13.7332
H	0.9761	-12.2266	14.3606
H	0.5746	-11.2755	12.8776
H	-0.4327	-12.6975	13.3361
C	2.2254	-6.4562	16.8717
H	2.1691	-6.5173	17.9801
H	1.7913	-5.4725	16.5919
C	3.6949	-6.5282	16.4657
H	4.2533	-5.6948	16.9411
H	3.8082	-6.4474	15.3639
H	4.1363	-7.4895	16.8036
C	1.2858	-6.4003	13.9036
H	1.8507	-5.5347	14.3055
C	-8.1935	-12.9477	-6.3618
C	-8.8048	-14.2120	-6.2471
C	-9.4701	-14.7383	-7.3667
H	-9.9493	-15.7087	-7.3092
C	-9.5284	-14.0316	-8.5735
H	-10.0586	-14.4732	-9.4087
C	-8.9247	-12.7697	-8.7057
C	-8.2465	-12.2287	-7.5955
C	-7.4425	-12.2109	-5.2435
H	-7.3891	-12.7361	-4.2688
C	-8.7630	-15.0099	-4.9668
H	-9.5539	-15.7905	-4.9726
H	-8.9798	-14.3555	-4.0961
C	-7.4125	-15.7002	-4.7923
H	-6.5854	-14.9607	-4.7704
H	-7.2379	-16.4115	-5.6278
H	-7.4064	-16.2656	-3.8372
C	-9.0301	-12.0345	-10.0204
H	-9.3154	-12.7369	-10.8349
H	-8.0448	-11.6096	-10.3057
C	-10.0866	-10.9336	-9.9537
H	-10.1465	-10.4165	-10.9335
H	-9.8338	-10.1848	-9.1747
H	-11.0813	-11.3719	-9.7225
C	-7.5254	-10.8725	-7.5552
H	-7.5380	-10.2906	-8.4992
C	2.0022	-10.5972	-7.5614
C	2.7284	-11.1096	-6.4750
H	3.8064	-11.0005	-6.4459
C	2.0621	-11.7510	-5.4190
C	0.6660	-11.8851	-5.4581
H	0.1475	-12.3748	-4.6414
C	-0.0657	-11.3737	-6.5405
C	0.6061	-10.7340	-7.5912
H	0.0412	-10.3328	-8.4253
B	2.7350	-9.8483	-8.7255
O	2.0232	-9.2631	-9.8647
C	3.0765	-8.6681	-10.5367
C	2.9685	-7.9231	-11.7144
H	2.0110	-7.7749	-12.1960
C	4.1424	-7.3656	-12.2406
C	5.3966	-7.5668	-11.5904
C	5.4772	-8.3173	-10.4091
H	6.4208	-8.4654	-9.8997
C	4.2925	-8.8581	-9.9019
O	4.1798	-9.5999	-8.7382
B	2.8617	-12.2923	-4.1865
O	4.3148	-12.1554	-4.0443
C	4.4952	-12.7249	-2.7935
C	5.7188	-12.8542	-2.1277
H	6.6380	-12.5038	-2.5780
C	5.7078	-13.4489	-0.8573
C	4.4863	-13.8987	-0.2763
C	3.2725	-13.7525	-0.9612
H	2.3377	-14.0824	-0.5274
C	3.3100	-13.1602	-2.2265
O	2.2116	-12.9296	-3.0378
B	-1.6259	-11.4863	-6.5583
O	-2.3905	-12.1204	-5.4816
C	-3.6809	-11.8834	-5.9229
C	-4.8483	-12.2599	-5.2535
H	-4.8037	-12.7933	-4.3131
C	-6.0727	-11.9108	-5.8368
C	-6.1150	-11.1972	-7.0707
C	-4.9294	-10.8294	-7.7236
H	-4.9466	-10.2784	-8.6550
C	-3.7201	-11.1903	-7.1211
O	-2.4577	-10.8930	-7.6081
C	7.9716	-7.5378	7.2328
C	7.8281	-8.4951	6.2183
H	8.5675	-8.5558	5.4270
C	6.7254	-9.3621	6.2121
C	5.7647	-9.2722	7.2320
H	4.9086	-9.9381	7.2281
C	5.9004	-8.3149	8.2488
C	7.0069	-7.4534	8.2472
H	7.1124	-6.7085	9.0293
B	9.1838	-6.5472	7.2194
O	9.3593	-5.4878	8.2176
C	10.4864	-4.8591	7.7156
C	11.0968	-3.7269	8.2652
H	10.7096	-3.2662	9.1652
C	12.2119	-3.2005	7.5976
C	12.6965	-3.8095	6.4023
C	12.0670	-4.9442	5.8720
H	12.4170	-5.4061	4.9579
C	10.9564	-5.4491	6.5556
O	10.1949	-6.5350	6.1584
B	6.5558	-10.4032	5.0561
O	7.5041	-10.5193	3.9444
C	6.8837	-11.5006	3.1909
C	7.3554	-12.0112	1.9781
H	8.2806	-11.6546	1.5446
C	6.5861	-12.9966	1.3442
C	5.3654	-13.4506	1.9254
C	4.9133	-12.9232	3.1436
H	3.9876	-13.2577	3.5923
C	5.7004	-11.9429	3.7567
O	5.4041	-11.3043	4.9491
B	4.8118	-8.1779	9.3660
O	3.6124	-9.0194	9.4326
C	2.9771	-8.4567	10.5282
C	1.7457	-8.8624	11.0523
H	1.1984	-9.6876	10.6156
C	1.2445	-8.1587	12.1574
C	1.9744	-7.0681	12.7171
C	3.2086	-6.6830	12.1747
H	3.7711	-5.8549	12.5872
C	3.6862	-7.4005	11.0745
O	4.8705	-7.1470	10.4059
C	7.1298	2.4578	-10.6061
C	7.0572	1.0987	-10.9428
H	7.8481	0.4242	-10.6327
C	5.9627	0.6044	-11.6665
C	4.9368	1.4800	-12.0588
H	4.0857	1.1005	-12.6118
C	5.0074	2.8429	-11.7309
C	6.1053	3.3276	-11.0062
H	6.1586	4.3778	-10.7438
B	8.3338	2.9970	-9.7659
O	8.4469	4.3966	-9.3481
C	9.6134	4.3360	-8.6036
C	10.2050	5.4143	-7.9391
H	9.7624	6.4009	-7.9739
C	11.3843	5.1674	-7.2240
C	11.9463	3.8576	-7.1765
C	11.3302	2.7909	-7.8470
H	11.7409	1.7907	-7.8130
C	10.1580	3.0649	-8.5602
O	9.4136	2.1387	-9.2721
B	5.8788	-0.9213	-12.0080
O	6.9036	-1.8839	-11.5919
C	6.3381	-3.0611	-12.0518
C	6.8861	-4.3376	-11.8937
H	7.8335	-4.4797	-11.3898
C	6.1572	-5.4244	-12.3955
C	4.9020	-5.2217	-13.0412
C	4.3728	-3.9304	-13.1859
H	3.4148	-3.7644	-13.6592
C	5.1201	-2.8633	-12.6774
O	4.7397	-1.5301	-12.7019
C	10.8975	5.8848	3.0050
C	11.1467	5.9367	1.6255
H	10.8633	6.8175	1.0595
C	11.7523	4.8520	0.9740
C	12.1097	3.7121	1.7095
H	12.5744	2.8711	1.2079
C	11.8617	3.6527	3.0897
C	11.2562	4.7413	3.7332
H	11.0595	4.6962	4.7994
B	12.0097	4.9077	-0.5688
O	11.6208	6.0466	-1.4049
C	12.0018	5.5812	-2.6515
C	11.8434	6.2675	-3.8589
H	11.3963	7.2535	-3.8856
C	12.2702	5.6290	-5.0312
C	12.8381	4.3215	-4.9827
C	12.9888	3.6554	-3.7592
H	13.4130	2.6610	-3.7076
C	12.5595	4.3140	-2.6036
O	12.6098	3.7999	-1.3183
B	12.2441	2.3726	3.9045
O	12.8400	1.1839	3.2897
C	12.9348	0.3549	4.3957
C	13.4251	-0.9532	4.3869
H	13.7838	-1.4078	3.4730
C	13.4227	-1.6558	5.5993
C	12.9380	-1.0456	6.7937
C	12.4527	0.2699	6.7763
H	12.0757	0.7424	7.6740
C	12.4628	0.9485	5.5535
O	11.9996	2.2377	5.3443
B	-3.8565	-3.8133	12.1535
O	-2.6291	-3.3696	12.8206
C	-1.9356	-4.5667	12.8886
C	-0.6537	-4.7365	13.4213
H	-0.1097	-3.8998	13.8419
C	-0.0976	-6.0229	13.3852
C	-0.8259	-7.1137	12.8251
C	-2.1079	-6.9176	12.2943
H	-2.6665	-7.7355	11.8571
C	-2.6391	-5.6254	12.3395
O	-3.8757	-5.2467	11.8430
B	-10.2265	-7.1042	-3.7320
O	-9.9054	-7.0999	-5.1610
C	-9.2964	-8.3387	-5.2788
C	-8.7631	-8.8686	-6.4560
H	-8.8031	-8.3158	-7.3854
C	-8.1699	-10.1372	-6.3865
C	-8.1245	-10.8502	-5.1521
C	-8.6613	-10.2931	-3.9831
H	-8.6214	-10.8201	-3.0384
C	-9.2449	-9.0270	-4.0797
O	-9.8120	-8.3229	-3.0309
