648

C	-8.4893	7.8890	-11.9636
C	-8.5445	8.5656	-13.1987
C	-9.7885	9.0398	-13.6485
H	-9.8622	9.5675	-14.5915
C	-10.9508	8.8535	-12.8919
H	-11.8880	9.2324	-13.2797
C	-10.9147	8.1849	-11.6564
C	-9.6740	7.7094	-11.1855
C	-7.2266	7.2962	-11.3186
H	-6.2892	7.4083	-11.9015
C	-7.3143	8.8024	-14.0421
H	-7.6039	9.0594	-15.0845
H	-6.7053	7.8760	-14.1068
C	-6.4791	9.9532	-13.4855
H	-7.0732	10.8920	-13.4882
H	-5.5812	10.1004	-14.1202
H	-6.1470	9.7403	-12.4478
C	-12.1959	7.9998	-10.8796
H	-12.9772	8.7007	-11.2468
H	-12.0364	8.2448	-9.8080
C	-12.7291	6.5766	-11.0268
H	-11.9793	5.8311	-10.6909
H	-12.9876	6.3747	-12.0882
H	-13.6446	6.4577	-10.4096
C	-9.4386	6.9777	-9.8550
H	-10.3367	6.8306	-9.2216
C	-13.9805	-6.8116	-6.1550
C	-15.3690	-6.7906	-6.3981
C	-15.9586	-7.9060	-7.0169
H	-17.0233	-7.9214	-7.2119
C	-15.1946	-9.0227	-7.3756
H	-15.6937	-9.8665	-7.8358
C	-13.8121	-9.0665	-7.1299
C	-13.2013	-7.9513	-6.5214
C	-13.1647	-5.6845	-5.5043
H	-13.7378	-4.7824	-5.2079
C	-16.2375	-5.6212	-6.0007
H	-17.2019	-5.6501	-6.5538
H	-15.7486	-4.6632	-6.2753
C	-16.5451	-5.6560	-4.5058
H	-15.6128	-5.6216	-3.9062
H	-17.1024	-6.5843	-4.2533
H	-17.1722	-4.7814	-4.2343
C	-13.0300	-10.2982	-7.5163
H	-12.0881	-10.0119	-8.0310
H	-13.6080	-10.9115	-8.2425
C	-12.7300	-11.1644	-6.2950
H	-12.1335	-10.6048	-5.5449
H	-12.1528	-12.0592	-6.6088
H	-13.6785	-11.4996	-5.8240
C	-11.7077	-7.8156	-6.1906
H	-11.0720	-8.6818	-6.4651
C	-13.0082	-2.2095	9.8551
C	-13.5980	-2.7054	11.0355
C	-14.9750	-2.5074	11.2324
H	-15.4571	-2.8794	12.1285
C	-15.7525	-1.8373	10.2821
H	-16.8094	-1.7007	10.4785
C	-15.1843	-1.3417	9.0970
C	-13.8047	-1.5380	8.8783
C	-11.5203	-2.3095	9.4830
H	-10.8703	-2.8156	10.2255
C	-12.8018	-3.4463	12.0818
H	-13.3535	-3.4638	13.0467
H	-11.8425	-2.9248	12.2818
C	-12.5455	-4.8903	11.6535
H	-11.9682	-5.4142	12.4444
H	-11.9660	-4.9272	10.7084
H	-13.5105	-5.4218	11.5075
C	-16.0619	-0.6143	8.1069
H	-17.1303	-0.8715	8.2774
H	-15.8283	-0.9345	7.0708
C	-15.9104	0.8993	8.2444
H	-16.5539	1.4051	7.4945
H	-14.8584	1.2101	8.0762
H	-16.2278	1.2245	9.2581
C	-13.0149	-1.0731	7.6457
H	-13.6037	-0.5565	6.8618
C	-8.7747	13.7651	4.4703
C	-8.8790	15.0569	5.0247
C	-10.1430	15.6686	5.0649
H	-10.2557	16.6615	5.4832
C	-11.2757	15.0246	4.5535
H	-12.2276	15.5395	4.5932
C	-11.1867	13.7455	3.9804
C	-9.9295	13.1093	3.9458
C	-7.4854	12.9367	4.3583
H	-6.5688	13.4157	4.7592
C	-7.6810	15.8001	5.5666
H	-7.0641	15.1300	6.1998
H	-8.0096	16.6358	6.2225
C	-6.8410	16.3884	4.4351
H	-6.4677	15.5931	3.7589
H	-5.9687	16.9269	4.8619
H	-7.4474	17.1094	3.8444
C	-12.4277	13.1027	3.4105
H	-13.3385	13.6017	3.8070
H	-12.4933	12.0397	3.7231
C	-12.4504	13.2148	1.8876
H	-11.5685	12.7129	1.4387
H	-12.4499	14.2830	1.5841
H	-13.3701	12.7336	1.4935
C	-9.6452	11.7109	3.3754
H	-10.5215	11.1724	2.9613
C	0.2077	-4.9967	-15.9728
C	0.4131	-4.7764	-17.3498
C	0.2330	-5.8519	-18.2353
H	0.3863	-5.7140	-19.2976
C	-0.1616	-7.1126	-17.7722
H	-0.3033	-7.9086	-18.4926
C	-0.3864	-7.3466	-16.4059
C	-0.1920	-6.2856	-15.5003
C	0.3824	-3.9536	-14.8577
H	0.6937	-2.9414	-15.1894
C	0.8126	-3.4268	-17.8979
H	1.2196	-3.5325	-18.9279
H	1.6263	-2.9849	-17.2856
C	-0.3846	-2.4812	-17.9573
H	-1.1628	-2.8948	-18.6342
H	-0.0599	-1.4952	-18.3524
H	-0.8254	-2.3317	-16.9502
C	-0.8306	-8.7185	-15.9548
H	-0.2607	-9.0345	-15.0565
H	-0.6145	-9.4731	-16.7426
C	-2.3306	-8.7446	-15.6710
H	-2.8977	-8.4818	-16.5894
H	-2.5970	-8.0289	-14.8656
H	-2.6298	-9.7652	-15.3507
C	-0.3616	-6.3629	-13.9762
H	-0.6689	-7.3502	-13.5743
C	4.3558	14.9314	-5.7692
C	4.7059	15.8103	-6.8131
C	5.0624	17.1297	-6.4877
H	5.3292	17.8301	-7.2694
C	5.0728	17.5698	-5.1585
H	5.3589	18.5936	-4.9551
C	4.7265	16.7075	-4.1044
C	4.3560	15.3833	-4.4129
C	3.9492	13.4591	-5.9332
H	3.9472	13.0722	-6.9726
C	4.6980	15.3825	-8.2615
H	5.1755	14.3865	-8.3748
H	5.2978	16.0879	-8.8762
C	3.2767	15.3570	-8.8178
H	3.2988	15.0382	-9.8802
H	2.8280	16.3719	-8.7621
H	2.6373	14.6497	-8.2496
C	4.7575	17.2250	-2.6849
H	3.8434	16.9123	-2.1391
H	4.7589	18.3369	-2.6808
C	6.0085	16.7486	-1.9493
H	6.9212	17.0958	-2.4789
H	6.0313	15.6419	-1.8773
H	6.0150	17.1690	-0.9211
C	3.9339	14.3090	-3.4005
H	3.9135	14.6290	-2.3390
C	-5.2286	11.7733	-2.7457
C	-5.8661	11.1291	-3.8189
H	-6.8819	10.7669	-3.7050
C	-5.1884	10.9393	-5.0336
C	-3.8714	11.4037	-5.1728
H	-3.3430	11.2531	-6.1083
C	-3.2277	12.0431	-4.1050
C	-3.9108	12.2304	-2.8946
H	-3.4129	12.7209	-2.0649
B	-5.9684	11.9560	-1.3770
O	-5.3389	12.5878	-0.2138
C	-6.3456	12.4385	0.7244
C	-6.2768	12.8491	2.0586
H	-5.3939	13.3412	2.4465
C	-7.3840	12.5891	2.8771
C	-8.5376	11.9324	2.3524
C	-8.5812	11.5300	1.0099
H	-9.4457	11.0205	0.6035
C	-7.4620	11.7975	0.2158
O	-7.3197	11.4505	-1.1189
B	-5.8777	10.1858	-6.2206
O	-7.2312	9.6287	-6.1423
C	-7.3252	9.0322	-7.3899
C	-8.4294	8.3225	-7.8708
H	-9.3166	8.1956	-7.2660
C	-8.3428	7.7798	-9.1614
C	-7.1611	7.9491	-9.9424
C	-6.0648	8.6599	-9.4352
H	-5.1604	8.7893	-10.0153
C	-6.1785	9.1963	-8.1496
O	-5.1986	9.9179	-7.4918
B	-1.7416	12.5135	-4.2508
O	-0.9623	12.3259	-5.4774
C	0.2655	12.8144	-5.0664
C	1.4246	12.8568	-5.8476
H	1.4212	12.5044	-6.8708
C	2.5898	13.3603	-5.2536
C	2.5807	13.8139	-3.9008
C	1.4056	13.7585	-3.1387
H	1.3886	14.0855	-2.1073
C	0.2566	13.2517	-3.7531
O	-0.9789	13.1024	-3.1471
C	-8.0969	-2.4484	-10.0532
C	-8.3048	-1.0631	-10.0942
H	-9.1575	-0.6305	-9.5815
C	-7.4086	-0.2322	-10.7832
C	-6.3030	-0.7969	-11.4389
H	-5.6054	-0.1569	-11.9688
C	-6.0885	-2.1835	-11.3996
C	-6.9891	-3.0046	-10.7067
H	-6.8221	-4.0761	-10.6682
B	-9.0772	-3.3687	-9.2541
O	-8.8814	-4.8145	-9.1220
C	-9.9238	-5.1270	-8.2662
C	-10.2007	-6.3993	-7.7594
H	-9.5935	-7.2528	-8.0312
C	-11.2773	-6.5232	-6.8720
C	-12.0550	-5.3847	-6.5066
C	-11.7545	-4.1183	-7.0272
H	-12.3258	-3.2434	-6.7452
C	-10.6758	-4.0207	-7.9119
O	-10.2168	-2.8511	-8.4927
B	-7.6321	1.3177	-10.7929
O	-8.7506	1.9654	-10.1011
C	-8.4647	3.2955	-10.3588
C	-9.2143	4.3881	-9.9103
H	-10.1064	4.2466	-9.3162
C	-8.7639	5.6703	-10.2560
C	-7.5834	5.8404	-11.0368
C	-6.8482	4.7282	-11.4727
H	-5.9481	4.8441	-12.0599
C	-7.3174	3.4607	-11.1149
O	-6.7147	2.2574	-11.4437
B	-4.8373	-2.8155	-12.0971
O	-3.8379	-2.0263	-12.8233
C	-2.9383	-3.0234	-13.1665
C	-1.7484	-2.8348	-13.8748
H	-1.4548	-1.8514	-14.2189
C	-0.9483	-3.9602	-14.1140
C	-1.3454	-5.2474	-13.6433
C	-2.5444	-5.4106	-12.9374
H	-2.8549	-6.3814	-12.5715
C	-3.3254	-4.2729	-12.7132
O	-4.5246	-4.2458	-12.0221
C	-8.0687	4.3943	9.2511
C	-8.3193	5.5197	8.4541
H	-9.1714	5.5261	7.7819
C	-7.4656	6.6321	8.5096
C	-6.3585	6.6153	9.3729
H	-5.6927	7.4700	9.4136
C	-6.1050	5.4932	10.1775
C	-6.9643	4.3870	10.1146
H	-6.7675	3.5145	10.7289
B	-8.9992	3.1381	9.1552
O	-8.7615	1.9132	9.9219
C	-9.7790	1.1132	9.4302
C	-10.0256	-0.2091	9.8114
H	-9.4082	-0.6997	10.5515
C	-11.0971	-0.8722	9.1992
C	-11.8942	-0.2131	8.2169
C	-11.6242	1.1124	7.8475
H	-12.2188	1.6206	7.1006
C	-10.5534	1.7534	8.4787
O	-10.1362	3.0526	8.2332
B	-7.7388	7.8709	7.5914
O	-8.8570	7.9273	6.6451
C	-8.6169	9.1545	6.0505
C	-9.3794	9.7188	5.0225
H	-10.2456	9.2075	4.6248
C	-8.9683	10.9598	4.5160
C	-7.8148	11.6140	5.0406
C	-7.0671	11.0259	6.0716
H	-6.1820	11.5044	6.4685
C	-7.4973	9.7868	6.5589
O	-6.8668	9.0489	7.5495
C	-8.9051	-8.6712	2.8837
C	-9.3402	-7.7576	3.8532
H	-8.9794	-7.8392	4.8725
C	-10.2329	-6.7323	3.5092
C	-10.6947	-6.6280	2.1882
H	-11.3843	-5.8347	1.9195
C	-10.2618	-7.5367	1.2114
C	-9.3688	-8.5590	1.5640
H	-9.0284	-9.2619	0.8107
B	-10.6955	-5.7006	4.5881
O	-10.2235	-5.7261	5.9767
C	-10.8794	-4.6153	6.4796
C	-10.7836	-4.1400	7.7917
H	-10.1625	-4.6413	8.5229
C	-11.5123	-2.9878	8.1184
C	-12.3125	-2.3300	7.1386
C	-12.3896	-2.8253	5.8307
H	-12.9859	-2.3314	5.0747
C	-11.6588	-3.9776	5.5301
O	-11.6073	-4.5934	4.2911
B	-10.7589	-7.4003	-0.2675
O	-11.6688	-6.3406	-0.7102
C	-11.7552	-6.6379	-2.0605
C	-12.4983	-5.9194	-3.0034
H	-13.0797	-5.0540	-2.7126
C	-12.4512	-6.3539	-4.3350
C	-11.6725	-7.4920	-4.7013
C	-10.9381	-8.1952	-3.7370
H	-10.3369	-9.0541	-4.0047
C	-10.9987	-7.7402	-2.4167
O	-10.3250	-8.2980	-1.3426
B	4.8514	-5.4508	-11.1221
O	3.8604	-6.5287	-11.1837
C	2.9616	-5.9864	-12.0876
C	1.7732	-6.5874	-12.5093
H	1.4804	-7.5625	-12.1412
C	0.9721	-5.8797	-13.4163
C	1.3681	-4.5929	-13.8862
C	2.5634	-4.0083	-13.4427
H	2.8692	-3.0275	-13.7824
C	3.3433	-4.7340	-12.5378
O	4.5362	-4.3046	-11.9809
B	7.8830	9.7820	-3.2619
O	7.3521	10.7445	-2.2931
C	6.5019	11.4717	-3.1090
C	5.6979	12.5377	-2.6962
H	5.7017	12.8740	-1.6674
C	4.8858	13.1478	-3.6609
C	4.8932	12.6931	-5.0127
C	5.7043	11.6182	-5.3999
H	5.7094	11.2547	-6.4191
C	6.5035	11.0238	-4.4189
O	7.3517	9.9486	-4.6176
C	8.4880	-7.8921	11.9613
C	8.5426	-8.5630	13.1997
C	9.7864	-9.0345	13.6518
H	9.8605	-9.5586	14.5970
C	10.9501	-8.8490	12.8964
H	11.8877	-9.2244	13.2864
C	10.9146	-8.1848	11.6584
C	9.6746	-7.7125	11.1844
C	7.2261	-7.3024	11.3146
H	6.2885	-7.4144	11.8961
C	7.3118	-8.7969	14.0426
H	6.7026	-7.8707	14.1023
H	7.6013	-9.0475	15.0867
C	6.4773	-9.9504	13.4914
H	6.1283	-9.7333	12.4608
H	5.5899	-10.1084	14.1398
H	7.0788	-10.8843	13.4797
C	12.1974	-7.9958	10.8830
H	12.0419	-8.2463	9.8127
H	12.9802	-8.6913	11.2560
C	12.7246	-6.5697	11.0255
H	13.6609	-6.4607	10.4398
H	12.9451	-6.3493	12.0912
H	11.9858	-5.8309	10.6504
C	9.4397	-6.9825	9.8537
H	10.3377	-6.8341	9.2197
C	13.9768	6.8194	6.1586
C	15.3657	6.7954	6.3973
C	15.9564	7.9042	7.0248
H	17.0205	7.9153	7.2240
C	15.1955	9.0214	7.3888
H	15.6961	9.8607	7.8558
C	13.8146	9.0723	7.1368
C	13.1997	7.9590	6.5276
C	13.1588	5.6927	5.5090
H	13.7307	4.7904	5.2120
C	16.2326	5.6290	5.9888
H	15.7490	4.6685	6.2675
H	17.2027	5.6581	6.5325
C	16.5275	5.6631	4.4906
H	17.1744	4.8025	4.2198
H	17.0584	6.6029	4.2276
H	15.5910	5.5999	3.8989
C	13.0397	10.3120	7.5147
H	13.6178	10.9227	8.2422
H	12.0932	10.0363	8.0242
C	12.7543	11.1770	6.2898
H	12.1544	10.6212	5.5396
H	13.7081	11.4997	5.8216
H	12.1870	12.0804	6.5976
C	11.7045	7.8258	6.1971
H	11.0712	8.6939	6.4721
C	13.0127	2.2009	-9.8563
C	13.5985	2.6999	-11.0367
C	14.9778	2.5139	-11.2319
H	15.4586	2.8932	-12.1260
C	15.7597	1.8494	-10.2805
H	16.8176	1.7245	-10.4758
C	15.1931	1.3437	-9.0983
C	13.8126	1.5306	-8.8807
C	11.5269	2.3047	-9.4787
H	10.8749	2.8111	-10.2187
C	12.7979	3.4352	-12.0841
H	11.8421	2.9074	-12.2828
H	13.3484	3.4536	-13.0487
C	12.5330	4.8779	-11.6589
H	11.9470	5.3959	-12.4481
H	13.4949	5.4164	-11.5192
H	11.9580	4.9142	-10.7108
C	16.0732	0.6155	-8.1116
H	15.8591	0.9535	-7.0766
H	17.1436	0.8514	-8.3006
C	15.8946	-0.8966	-8.2264
H	16.1813	-1.2390	-9.2443
H	14.8431	-1.1899	-8.0302
H	16.5478	-1.4052	-7.4859
C	13.0249	1.0656	-7.6455
H	13.6169	0.5490	-6.8636
C	8.7705	-13.7649	-4.4770
C	8.8748	-15.0578	-5.0271
C	10.1380	-15.6712	-5.0644
H	10.2499	-16.6646	-5.4805
C	11.2701	-15.0280	-4.5530
H	12.2222	-15.5442	-4.5907
C	11.1827	-13.7477	-3.9808
C	9.9265	-13.1088	-3.9519
C	7.4817	-12.9358	-4.3650
H	6.5657	-13.4139	-4.7660
C	7.6765	-15.8019	-5.5662
H	8.0042	-16.6358	-6.2247
H	7.0569	-15.1322	-6.1983
C	6.8389	-16.3932	-4.4345
H	6.4559	-15.5973	-3.7640
H	7.4503	-17.1051	-3.8391
H	5.9732	-16.9429	-4.8621
C	12.4235	-13.1093	-3.4040
H	12.4968	-12.0487	-3.7235
H	13.3342	-13.6165	-3.7915
C	12.4348	-13.2116	-1.8810
H	13.3516	-12.7292	-1.4828
H	12.4311	-14.2784	-1.5712
H	11.5500	-12.7068	-1.4401
C	9.6436	-11.7091	-3.3839
H	10.5199	-11.1706	-2.9698
C	-0.2086	5.0010	15.9723
C	-0.4141	4.7819	17.3486
C	-0.2292	5.8564	18.2348
H	-0.3752	5.7170	19.2995
C	0.1595	7.1190	17.7712
H	0.3012	7.9150	18.4916
C	0.3814	7.3527	16.4047
C	0.1916	6.2894	15.4990
C	-0.3848	3.9578	14.8588
H	-0.6983	2.9473	15.1910
C	-0.8177	3.4342	17.8959
H	-1.6317	2.9959	17.2817
H	-1.2267	3.5412	18.9242
C	0.3767	2.4857	17.9564
H	1.1601	2.9011	18.6254
H	0.8117	2.3279	16.9476
H	0.0506	1.5036	18.3576
C	0.8243	8.7242	15.9529
H	0.6099	9.4787	16.7405
H	0.2510	9.0403	15.0552
C	2.3233	8.7484	15.6670
H	2.6230	9.7656	15.3387
H	2.5879	8.0255	14.8666
H	2.8902	8.4908	16.5866
C	0.3651	6.3638	13.9748
H	0.6760	7.3497	13.5731
C	-4.3480	-14.9378	5.7626
C	-4.7042	-15.8133	6.8075
C	-5.0687	-17.1304	6.4828
H	-5.3471	-17.8272	7.2648
C	-5.0791	-17.5730	5.1548
H	-5.3739	-18.5953	4.9506
C	-4.7270	-16.7137	4.1004
C	-4.3515	-15.3908	4.4074
C	-3.9426	-13.4658	5.9260
H	-3.9372	-13.0778	6.9643
C	-4.7030	-15.3794	8.2529
H	-5.3111	-16.0787	8.8663
H	-5.1789	-14.3814	8.3575
C	-3.2855	-15.3567	8.8196
H	-2.6368	-14.6629	8.2459
H	-2.8446	-16.3758	8.7827
H	-3.3149	-15.0203	9.8768
C	-4.7718	-17.2284	2.6816
H	-4.7809	-18.3411	2.6736
H	-3.8594	-16.9198	2.1294
C	-6.0245	-16.7402	1.9569
H	-6.0338	-17.1389	0.9216
H	-6.0507	-15.6319	1.9083
H	-6.9350	-17.0992	2.4835
C	-3.9315	-14.3164	3.3925
H	-3.9135	-14.6358	2.3306
C	5.2314	-11.7734	2.7394
C	5.8676	-11.1282	3.8114
H	6.8842	-10.7690	3.6994
C	5.1874	-10.9342	5.0239
C	3.8697	-11.3957	5.1626
H	3.3393	-11.2424	6.0957
C	3.2276	-12.0400	4.0943
C	3.9127	-12.2300	2.8863
H	3.4155	-12.7222	2.0578
B	5.9712	-11.9611	1.3718
O	5.3424	-12.5946	0.2099
C	6.3467	-12.4423	-0.7299
C	6.2761	-12.8516	-2.0645
H	5.3950	-13.3462	-2.4514
C	7.3820	-12.5869	-2.8848
C	8.5345	-11.9294	-2.3599
C	8.5792	-11.5278	-1.0176
H	9.4425	-11.0163	-0.6115
C	7.4625	-11.7984	-0.2218
O	7.3211	-11.4521	1.1113
B	5.8778	-10.1828	6.2113
O	7.2340	-9.6301	6.1367
C	7.3283	-9.0374	7.3861
C	8.4345	-8.3303	7.8695
H	9.3235	-8.2059	7.2657
C	8.3455	-7.7871	9.1598
C	7.1636	-7.9550	9.9387
C	6.0664	-8.6629	9.4297
H	5.1607	-8.7901	10.0079
C	6.1807	-9.1972	8.1433
O	5.1980	-9.9145	7.4818
B	1.7436	-12.5133	4.2389
O	0.9635	-12.3240	5.4643
C	-0.2636	-12.8154	5.0538
C	-1.4216	-12.8587	5.8348
H	-1.4177	-12.5029	6.8566
C	-2.5854	-13.3656	5.2432
C	-2.5774	-13.8195	3.8913
C	-1.4026	-13.7653	3.1270
H	-1.3849	-14.0964	2.0968
C	-0.2542	-13.2557	3.7410
O	0.9833	-13.1064	3.1361
C	8.0965	2.4426	10.0578
C	8.3067	1.0568	10.0992
H	9.1570	0.6257	9.5819
C	7.4144	0.2244	10.7910
C	6.3086	0.7857	11.4495
H	5.6142	0.1447	11.9818
C	6.0905	2.1712	11.4099
C	6.9888	2.9953	10.7168
H	6.8203	4.0667	10.6800
B	9.0730	3.3668	9.2559
O	8.8759	4.8138	9.1262
C	9.9184	5.1299	8.2713
C	10.1971	6.4049	7.7679
H	9.5905	7.2582	8.0439
C	11.2742	6.5321	6.8792
C	12.0504	5.3933	6.5118
C	11.7508	4.1261	7.0308
H	12.3238	3.2525	6.7479
C	10.6713	4.0254	7.9141
O	10.2135	2.8534	8.4917
B	7.6381	-1.3243	10.8016
O	8.7514	-1.9723	10.1019
C	8.4646	-3.3019	10.3576
C	9.2114	-4.3938	9.9060
H	10.1024	-4.2517	9.3085
C	8.7627	-5.6761	10.2514
C	7.5824	-5.8463	11.0336
C	6.8504	-4.7348	11.4755
H	5.9521	-4.8518	12.0667
C	7.3205	-3.4666	11.1190
O	6.7209	-2.2641	11.4538
B	4.8364	2.8015	12.1043
O	3.8341	2.0144	12.8302
C	2.9369	3.0135	13.1725
C	1.7454	2.8298	13.8812
H	1.4489	1.8488	14.2288
C	0.9481	3.9592	14.1188
C	1.3491	5.2447	13.6475
C	2.5503	5.4026	12.9417
H	2.8647	6.3716	12.5752
C	3.3267	4.2621	12.7188
O	4.5255	4.2316	12.0290
C	8.0528	-4.3829	-9.2362
C	8.3067	-5.5137	-8.4471
H	9.1586	-5.5214	-7.7757
C	7.4592	-6.6288	-8.5115
C	6.3525	-6.6112	-9.3763
H	5.6910	-7.4681	-9.4235
C	6.0972	-5.4848	-10.1740
C	6.9498	-4.3743	-10.1020
H	6.7505	-3.4996	-10.7101
B	8.9792	-3.1270	-9.1326
O	8.7437	-1.9012	-9.8996
C	9.7687	-1.1071	-9.4121
C	10.0220	0.2124	-9.7980
H	9.4018	0.7066	-10.5339
C	11.1012	0.8694	-9.1922
C	11.8996	0.2080	-8.2130
C	11.6210	-1.1147	-7.8387
H	12.2133	-1.6260	-7.0916
C	10.5431	-1.7512	-8.4636
O	10.1188	-3.0462	-8.2154
B	7.7363	-7.8723	-7.6012
O	8.8557	-7.9283	-6.6558
C	8.6156	-9.1555	-6.0612
C	9.3764	-9.7186	-5.0323
H	10.2432	-9.2064	-4.6346
C	8.9667	-10.9592	-4.5252
C	7.8122	-11.6126	-5.0482
C	7.0643	-11.0257	-6.0799
H	6.1779	-11.5030	-6.4744
C	7.4948	-9.7882	-6.5688
O	6.8639	-9.0499	-7.5585
C	8.8982	8.6577	-2.8778
C	9.3432	7.7480	-3.8485
H	8.9806	7.8272	-4.8677
C	10.2471	6.7318	-3.5050
C	10.7068	6.6291	-2.1836
H	11.4024	5.8426	-1.9148
C	10.2643	7.5349	-1.2070
C	9.3608	8.5477	-1.5586
H	9.0140	9.2467	-0.8046
B	10.7246	5.7075	-4.5879
O	10.2504	5.7285	-5.9742
C	10.9056	4.6182	-6.4778
C	10.8026	4.1372	-7.7862
H	10.1770	4.6358	-8.5162
C	11.5253	2.9820	-8.1136
C	12.3288	2.3241	-7.1357
C	12.4178	2.8278	-5.8313
H	13.0191	2.3363	-5.0774
C	11.6913	3.9832	-5.5297
O	11.6432	4.6039	-4.2924
B	10.7638	7.4067	0.2705
O	11.6736	6.3485	0.7162
C	11.7595	6.6486	2.0660
C	12.4968	5.9295	3.0097
H	13.0767	5.0628	2.7212
C	12.4467	6.3637	4.3410
C	11.6703	7.5025	4.7070
C	10.9403	8.2086	3.7401
H	10.3417	9.0704	4.0053
C	11.0043	7.7535	2.4193
O	10.3308	8.3086	1.3428
B	-4.8554	5.4599	11.1237
O	-3.8603	6.5346	11.1817
C	-2.9604	5.9928	12.0848
C	-1.7691	6.5916	12.5066
H	-1.4756	7.5674	12.1399
C	-0.9682	5.8827	13.4129
C	-1.3675	4.5971	13.8840
C	-2.5645	4.0165	13.4439
H	-2.8734	3.0370	13.7862
C	-3.3440	4.7419	12.5381
O	-4.5389	4.3141	11.9830
B	-7.8922	-9.7986	3.2680
O	-7.3605	-10.7569	2.2964
C	-6.5053	-11.4817	3.1103
C	-5.7005	-12.5448	2.6939
H	-5.7055	-12.8789	1.6647
C	-4.8836	-13.1561	3.6557
C	-4.8887	-12.7006	5.0073
C	-5.7011	-11.6271	5.3981
H	-5.7037	-11.2654	6.4183
C	-6.5040	-11.0347	4.4197
O	-7.3563	-9.9624	4.6224
