180

C	-6.1768	-0.3724	1.5371
C	-6.0745	1.0355	1.4413
C	-6.0396	1.6310	0.1588
C	-6.1539	0.8290	-1.0173
C	-6.2588	-0.5766	-0.9205
C	-6.2895	-1.1730	0.3601
C	-6.1392	-1.1448	2.8616
C	-5.8435	3.1341	-0.0715
C	-6.3370	-1.4316	-2.1808
C	-6.4771	-2.6781	0.5763
C	-5.3879	-4.8215	0.4943
C	-4.0668	-5.5570	0.3553
C	-3.1024	-5.3326	1.3605
C	-1.8777	-6.0257	1.2439
C	-1.7579	-6.8744	0.1271
C	-2.7071	-7.1062	-0.8864
C	-3.9270	-6.4077	-0.7618
C	-0.5474	-8.9835	-0.1886
C	0.3541	-9.5929	-1.0904
C	0.3375	-10.9876	-1.2899
C	-0.5835	-11.7880	-0.5883
C	-1.4869	-11.1918	0.3117
C	-1.4680	-9.7974	0.5087
C	-6.0621	1.9002	2.6931
C	-4.7327	2.8505	4.4339
C	-3.3476	3.1330	4.9873
C	-3.1333	3.1282	6.3715
C	-1.8697	3.4647	6.8849
C	-0.7556	3.8327	6.0887
C	-1.0373	3.8305	4.7000
C	-2.2879	3.5034	4.1459
C	6.3376	1.1563	-0.1807
C	6.3161	0.4989	1.0722
C	6.1530	-0.9052	1.1030
C	6.0634	-1.6529	-0.1104
C	6.0910	-0.9973	-1.3614
C	6.2440	0.4079	-1.3931
C	6.4211	2.6792	-0.3503
C	6.0160	-1.7139	2.3987
C	5.9410	-1.7932	-2.6534
C	6.3324	1.2065	-2.6970
C	5.0162	2.0061	-4.5490
C	3.6389	2.4485	-5.0176
C	3.4442	2.0916	-6.3595
C	2.2227	2.4263	-6.9419
C	1.2733	3.1008	-6.1571
C	1.4608	3.4751	-4.8029
C	2.7072	3.1331	-4.2030
C	-0.0067	4.0029	-8.0487
C	-0.9650	3.5848	-9.0000
C	-0.9982	4.1600	-10.2853
C	-0.0724	5.1613	-10.6339
C	0.8868	5.5855	-9.6947
C	0.9189	5.0087	-8.4105
C	6.4936	1.2830	2.3653
C	5.4012	2.5660	4.0610
C	4.0939	2.9896	4.7046
C	3.9506	4.3018	5.1985
C	2.7549	4.6966	5.8286
C	1.6843	3.7877	5.9762
C	1.8301	2.4753	5.4758
C	3.0273	2.0774	4.8487
C	0.5689	4.9203	7.8258
C	-0.2707	6.0380	8.0326
C	-0.1986	6.7782	9.2285
C	1.4856	4.5584	8.8394
C	1.5591	5.2972	10.0359
C	0.7174	6.4084	10.2325
C	-6.1886	1.5784	-2.3536
C	-4.8515	2.6145	-4.0533
C	-3.4941	2.6939	-4.7339
C	-3.3459	3.9410	-5.3565
C	-2.1542	4.1815	-6.0395
C	-1.1864	3.1640	-6.0664
C	-1.3268	1.8964	-5.4472
C	-2.5427	1.6475	-4.7468
N	-5.2054	-3.3831	0.5943
N	-0.5326	-7.5855	0.0089
N	-4.7095	2.1713	3.1486
C	5.9624	-3.1755	0.0321
C	4.4771	-5.0235	0.3670
C	3.0726	-5.5805	0.1956
C	2.9451	-6.7653	0.9339
C	1.7225	-7.4323	0.8726
C	0.7038	-6.8841	0.0757
C	0.8189	-5.6866	-0.6731
C	2.0677	-5.0012	-0.6142
N	5.0152	1.6294	-3.1458
N	0.0269	3.4257	-6.7620
N	5.2129	1.6695	2.9325
N	0.4981	4.1807	6.6281
N	-4.8645	1.6722	-2.9460
N	4.5789	-3.6211	-0.0040
H	-5.4511	-1.9889	2.8307
H	-7.1338	-1.4965	3.1368
H	-5.7764	-0.5297	3.6824
H	-6.7842	3.6153	-0.3386
H	-5.0929	3.3493	-0.8312
H	-5.4696	3.6305	0.8225
H	-7.3739	-1.5611	-2.4877
H	-5.7873	-0.9797	-3.0064
H	-5.8927	-2.4154	-2.0339
H	-7.0729	-2.9207	1.4551
H	-7.0808	-3.0500	-0.2524
H	-6.0209	-5.0509	-0.3647
H	-5.9082	-5.1890	1.3794
H	-3.2903	-4.6569	2.1832
H	-1.0893	-5.9112	1.9732
H	-2.5185	-7.7767	-1.7127
H	-4.7102	-6.5291	-1.4950
H	1.0611	-8.9892	-1.6408
H	1.0311	-11.4392	-1.9834
H	-0.5971	-12.8583	-0.7409
H	-2.1945	-11.8019	0.8523
H	-2.1631	-9.3532	1.2059
H	-6.5895	2.8360	2.5051
H	-6.6420	1.4105	3.4755
H	-5.2824	2.2447	5.1562
H	-5.2647	3.7995	4.3394
H	-3.9342	2.8725	7.0491
H	-1.7436	3.4400	7.9573
H	-0.2481	4.1126	4.0174
H	-2.4309	3.5461	3.0757
H	7.4145	2.9804	-0.6838
H	6.2195	3.2071	0.5792
H	5.6740	3.0630	-1.0440
H	5.1817	-2.4136	2.3704
H	6.9378	-2.2504	2.6242
H	5.8005	-1.0740	3.2531
H	6.9200	-2.0889	-3.0306
H	5.3429	-2.6919	-2.5082
H	5.4300	-1.2214	-3.4258
H	7.0198	2.0499	-2.6486
H	6.7776	0.5540	-3.4477
H	5.3669	1.1576	-5.1398
H	5.7178	2.8264	-4.7095
H	4.1941	1.5743	-6.9397
H	2.0162	2.1632	-7.9687
H	0.6991	3.9977	-4.2447
H	2.9295	3.3829	-3.1751
H	-1.6771	2.8133	-8.7466
H	-1.7348	3.8299	-11.0024
H	-0.0976	5.6026	-11.6203
H	1.5993	6.3536	-9.9570
H	1.6559	5.3469	-7.6966
H	7.0578	0.6891	3.0846
H	7.1164	2.1570	2.1803
H	5.9429	3.4557	3.7343
H	6.0130	2.0777	4.8210
H	4.7583	5.0124	5.1034
H	2.6609	5.7065	6.2023
H	1.0270	1.7617	5.5841
H	3.1271	1.0655	4.4810
H	-0.9723	6.3355	7.2663
H	-0.8445	7.6309	9.3730
H	2.1332	3.7046	8.7019
H	2.2627	5.0086	10.8036
H	0.7729	6.9754	11.1499
H	-6.8377	1.0360	-3.0424
H	-6.6651	2.5544	-2.2715
H	-5.1433	3.5977	-3.6795
H	-5.5915	2.3155	-4.7976
H	-4.1113	4.7029	-5.3214
H	-1.9847	5.1292	-6.5283
H	-0.5527	1.1453	-5.5023
H	-2.7286	0.7046	-4.2528
H	6.4945	-3.6361	-0.8003
H	6.4851	-3.5538	0.9088
H	5.1520	-5.6152	-0.2556
H	4.8021	-5.1395	1.4027
H	3.7516	-7.1659	1.5304
H	1.5703	-8.3479	1.4258
H	0.0056	-5.3090	-1.2756
H	2.2375	-4.0892	-1.1693
H	-4.5787	-3.0194	-0.1123
H	-4.1897	1.3059	3.1987
H	-4.1979	1.9278	-2.2311
H	4.3392	0.9024	-2.9481
H	4.6439	2.0970	2.2142
H	4.0360	-3.0389	0.6186
