222

O	-6.0794	-4.6666	2.7079
H	-7.0335	-4.9951	2.6188
C	-5.7630	0.9499	1.3472
O	0.8433	-7.5537	3.6545
H	1.7974	-7.3167	3.4442
C	-7.0969	0.4909	1.3285
C	-7.7590	0.3296	0.1085
H	-8.7944	0.0127	0.0961
O	-6.1494	-5.1156	-2.0681
H	-5.6078	-5.2487	-2.9068
C	-7.1109	0.5543	-1.1031
O	-7.8768	0.3870	-2.2629
H	-7.4765	0.7566	-3.1105
C	-5.7330	0.9104	-1.1200
C	-5.0962	1.1499	0.1218
H	-4.0648	1.4476	0.1535
C	-4.9705	0.9660	-2.4541
H	-5.5064	1.7234	-3.0531
C	-3.4900	1.4305	-2.4056
H	-2.9135	0.8752	-1.6360
H	-3.0245	1.1571	-3.3796
O	-7.7548	0.1696	2.5209
H	-8.7055	-0.1581	2.3928
C	-4.9922	-0.4050	-3.1376
C	-5.4490	-0.6034	-4.4700
C	-5.3981	-1.8800	-5.0344
H	-5.7625	-2.0189	-6.0460
C	-4.7948	-2.9502	-4.3629
O	-4.6340	-4.1809	-5.0091
H	-5.0120	-4.2038	-5.9492
C	-4.2948	-2.7644	-3.0589
C	-4.4391	-1.5037	-2.4475
H	-4.0526	-1.3582	-1.4457
C	-3.4686	-3.8457	-2.3661
H	-3.4674	-4.7751	-2.9713
O	3.4432	-7.1046	-2.2664
H	4.1613	-7.8140	-2.1671
C	-4.0995	-4.1948	-1.0074
O	-3.8035	-6.3619	3.7143
H	-3.9065	-7.3129	4.0496
C	-5.4197	-4.7249	-0.9400
C	-6.0566	-4.8670	0.2932
H	-7.0708	-5.2459	0.3203
O	4.0657	-6.6805	2.4691
H	4.0909	-5.9890	3.2029
C	-5.4084	-4.5377	1.4870
C	-4.0792	-4.0815	1.4529
C	-3.4360	-3.9238	0.2105
H	-2.4214	-3.5623	0.2153
C	-3.3454	-3.7214	2.7377
H	-4.0205	-3.8426	3.6135
C	-2.9470	-2.2218	2.7621
H	-2.3577	-2.0175	3.6824
H	-2.3156	-1.9621	1.8861
C	-4.1808	-1.3061	2.7510
H	-4.7760	-1.5114	1.8358
H	-4.8146	-1.5251	3.6384
C	-2.1957	-4.7005	2.9663
C	-2.4802	-5.9939	3.4456
C	-1.4420	-6.9068	3.6521
H	-1.6670	-7.9019	4.0157
C	-0.1118	-6.5609	3.4060
C	0.2075	-5.2566	2.9319
C	-0.8573	-4.3577	2.6925
H	-0.6520	-3.3861	2.2835
C	1.6654	-4.8282	2.6993
H	2.2119	-5.1865	3.5894
C	1.8961	-3.2933	2.7123
H	1.3935	-2.8047	1.8522
H	1.4638	-2.8775	3.6497
C	3.3850	-2.9216	2.6375
H	3.9362	-3.4328	3.4571
H	3.8028	-3.2561	1.6651
C	2.1954	-5.4350	1.4022
C	3.2840	-6.3460	1.3573
C	3.6341	-6.9377	0.1447
H	4.4322	-7.6700	0.1296
C	3.0333	-6.5396	-1.0549
C	2.0527	-5.5257	-1.0492
C	1.5939	-5.0420	0.1896
H	0.7915	-4.3240	0.2301
O	-5.9117	0.4287	-5.2929
H	-5.5388	1.3435	-5.0912
C	1.6115	-4.9257	-2.3849
H	1.2446	-5.7705	-3.0061
C	0.4643	-3.8786	-2.3448
H	0.6656	-3.0857	-1.5934
H	0.4602	-3.3594	-3.3308
O	5.7031	-2.0040	-5.1354
H	5.9073	-2.3614	-6.0618
C	-0.9446	-4.4691	-2.1427
H	-1.1125	-5.2761	-2.8880
H	-1.0412	-4.9079	-1.1286
C	-1.9931	-3.3595	-2.3563
H	-1.7864	-2.9149	-3.3579
H	-1.8426	-2.5311	-1.6318
C	2.8153	-4.2647	-3.0526
C	3.2503	-4.6697	-4.3299
C	4.2507	-3.9397	-4.9853
H	4.5655	-4.2400	-5.9776
C	4.8035	-2.7889	-4.4052
C	4.4129	-2.4004	-3.1035
C	3.4401	-3.1637	-2.4321
H	3.1103	-2.8526	-1.4483
C	4.8847	-1.0792	-2.5021
H	5.6059	-0.5987	-3.1951
O	2.6604	-5.7731	-4.9549
H	3.0391	-5.9756	-5.8730
C	3.6939	-0.0903	-2.4760
H	3.2222	-0.1274	-3.4845
H	2.9037	-0.4053	-1.7637
O	5.2685	6.0626	-2.3472
H	4.6822	5.9718	-3.1601
C	5.6304	-1.2785	-1.1719
O	-1.2039	6.4033	-4.9347
H	-1.0040	6.8408	-5.8266
C	7.0149	-1.6055	-1.1698
C	7.7230	-1.6420	0.0289
H	8.7834	-1.8622	0.0040
O	5.4361	5.8007	2.4329
H	6.1441	6.5166	2.3135
C	7.0911	-1.4190	1.2534
O	7.8335	-1.4578	2.4394
H	8.8207	-1.6451	2.3033
C	5.7068	-1.1627	1.2965
C	4.9924	-1.0799	0.0784
H	3.9422	-0.8511	0.1046
C	5.0443	-0.9659	2.6633
H	5.5683	-1.6447	3.3698
C	3.5633	-1.4034	2.7721
H	3.1896	-1.1112	3.7788
H	2.9248	-0.8714	2.0381
O	7.7436	-1.8908	-2.3302
H	7.1951	-2.1128	-3.1434
C	5.2062	0.4671	3.1531
C	5.9909	0.7550	4.2911
C	5.9847	2.0481	4.8301
H	6.5795	2.2626	5.7087
C	5.1751	3.0534	4.2845
O	5.1257	4.3149	4.8867
H	5.7174	4.4053	5.7053
C	4.3959	2.7814	3.1379
C	4.4689	1.5039	2.5509
H	3.8816	1.2920	1.6665
C	3.4105	3.8118	2.6021
H	3.3844	4.6800	3.2949
O	-2.5127	7.5580	2.4816
H	-2.8417	8.5099	2.3664
C	3.8787	4.3522	1.2520
O	3.4649	5.1297	-5.1263
H	3.4288	5.5749	-6.0358
C	4.8877	5.3362	1.2321
C	5.3293	5.8595	0.0146
H	6.0899	6.6314	0.0066
O	-2.3883	7.5940	-2.3659
H	-2.6835	8.5568	-2.2528
C	4.7941	5.4271	-1.1954
C	3.8183	4.3922	-1.2140
C	3.3600	3.8855	0.0249
H	2.6046	3.1221	0.0353
C	3.3262	3.8061	-2.5430
H	4.1873	3.8366	-3.2417
C	2.9328	2.3076	-2.5177
H	2.0916	2.1067	-1.8231
H	2.5520	2.0574	-3.5339
C	4.1068	1.3657	-2.2026
H	4.9729	1.6325	-2.8472
H	4.4108	1.4792	-1.1407
C	2.1699	4.6152	-3.1246
C	2.2726	5.2160	-4.3990
C	1.1608	5.8603	-4.9586
H	1.2531	6.3426	-5.9240
C	-0.0871	5.8235	-4.3219
C	-0.2220	5.1587	-3.0860
C	0.9259	4.6299	-2.4651
H	0.8283	4.1379	-1.5061
C	-1.6011	4.8599	-2.5113
H	-2.3753	5.2613	-3.1984
C	-1.8480	3.3317	-2.5213
H	-1.5955	2.9638	-3.5413
H	-1.1675	2.7967	-1.8280
C	-3.3101	2.9480	-2.2330
H	-3.5903	3.2575	-1.2047
H	-3.9705	3.4841	-2.9489
C	-1.8035	5.5583	-1.1692
C	-2.2083	6.9088	-1.1580
C	-2.4386	7.5602	0.0582
H	-2.7685	8.5911	0.0582
C	-2.2537	6.8948	1.2761
C	-1.8087	5.5549	1.2891
C	-1.6000	4.8960	0.0611
H	-1.2849	3.8682	0.0658
O	6.7520	-0.2508	4.8966
H	7.2762	0.0594	5.7067
C	-1.6090	4.8531	2.6307
H	-1.2304	5.6275	3.3178
C	-0.5028	3.7667	2.6735
H	-0.5112	3.3220	3.6946
H	-0.7023	2.9336	1.9700
O	-6.7459	2.9180	4.3233
H	-7.2147	2.3118	3.6691
C	0.9000	4.3323	2.4058
H	0.9652	4.6895	1.3554
H	1.0829	5.1936	3.0842
C	1.9660	3.2539	2.6556
H	1.8203	2.4054	1.9567
H	1.8059	2.8440	3.6786
C	-2.9413	4.3043	3.1394
C	-3.6721	4.9278	4.1863
C	-4.9428	4.4574	4.5120
H	-5.5246	4.9784	5.2625
C	-5.4609	3.3029	3.9308
C	-4.6835	2.5667	3.0003
C	-3.4812	3.1452	2.5403
H	-2.9278	2.6531	1.7556
C	-5.0194	1.1084	2.6744
H	-5.6657	0.7484	3.5010
O	-3.2022	6.0194	4.9229
H	-2.2069	6.0263	5.0883
C	-3.7812	0.1783	2.7679
H	-3.0727	0.3719	1.9350
H	-3.2410	0.3871	3.7180
