264

N	2.4093	3.5240	3.4467
O	1.2762	3.5482	5.3925
Br	3.8371	6.3270	4.7239
C	4.3010	1.3596	2.8105
H	3.9747	1.3692	3.8437
C	4.1978	2.5271	2.0378
C	3.6135	3.7908	2.6225
H	3.3469	4.4998	1.8133
H	4.4223	4.2862	3.1697
C	1.2848	2.8218	2.7753
H	1.6602	1.9282	2.2339
H	0.5475	2.4085	3.4941
C	2.2907	3.8735	4.7939
C	3.3490	4.6486	5.6010
C	2.7803	5.0815	6.9724
H	3.5312	5.6715	7.5412
H	1.8772	5.7153	6.8381
H	2.5013	4.1970	7.5874
C	4.5902	3.7758	5.8813
H	5.0895	3.4058	4.9691
H	5.3428	4.3538	6.4579
H	4.3028	2.8836	6.4784
N	-0.6476	-5.1100	-1.8516
O	0.9682	-5.5330	-3.3618
Br	-1.9813	-7.9678	-3.1307
C	-0.0974	-5.2320	1.0341
H	0.6895	-5.6467	0.4166
C	-1.3972	-5.1137	0.5170
C	-1.7041	-5.5341	-0.9011
H	-2.6742	-5.1092	-1.2239
H	-1.8707	-6.6154	-0.8789
C	-0.3556	-3.6541	-1.9152
H	-0.2112	-3.2478	-0.8922
H	0.6023	-3.4306	-2.4288
C	0.0854	-5.9901	-2.6511
C	-0.1257	-7.5146	-2.7100
C	0.6957	-8.1342	-3.8631
H	0.3990	-7.6881	-4.8373
H	1.7849	-7.9655	-3.7151
H	0.5250	-9.2310	-3.9231
C	0.3391	-8.1960	-1.4063
H	-0.1798	-7.8323	-0.5041
H	0.1688	-9.2912	-1.4652
H	1.4252	-8.0208	-1.2501
N	-0.0347	4.9220	2.4144
O	1.4738	6.2513	1.4012
Br	0.0090	7.3653	4.7705
C	-2.6770	4.4281	1.2123
H	-2.1254	5.2344	0.7447
C	-2.3521	4.0289	2.5180
C	-1.2257	4.6974	3.2697
H	-0.9322	4.0824	4.1450
H	-1.6389	5.6144	3.7007
C	0.5566	3.7219	1.7694
H	-0.2363	3.1217	1.2770
H	1.2511	3.9785	0.9428
C	0.5318	6.1761	2.1771
C	0.0619	7.4939	2.8196
C	1.0710	8.6293	2.5348
H	1.1533	8.8278	1.4433
H	0.7529	9.5722	3.0307
H	2.0783	8.3630	2.9216
C	-1.2986	7.9425	2.2466
H	-1.6179	8.8960	2.7188
H	-1.2170	8.1070	1.1505
H	-2.1107	7.2129	2.4039
N	-1.7293	-3.3138	-3.9845
O	-3.7175	-4.1860	-3.3860
Br	-1.8455	-5.7410	-6.3563
C	-1.5391	-0.5761	-5.0545
H	-2.5522	-0.9554	-4.9960
C	-0.4610	-1.4746	-5.0714
C	-0.6972	-2.9638	-4.9894
H	0.2470	-3.4868	-4.7361
H	-0.9358	-3.2991	-6.0031
C	-1.4821	-2.8627	-2.5903
H	-1.2071	-1.7878	-2.5801
H	-2.3913	-2.9136	-1.9562
C	-2.9038	-4.0111	-4.2793
C	-3.2643	-4.5864	-5.6615
C	-4.4996	-5.5105	-5.5617
H	-5.3926	-4.9491	-5.2085
H	-4.7421	-5.9520	-6.5522
H	-4.3054	-6.3442	-4.8532
C	-3.6171	-3.4630	-6.6592
H	-3.8721	-3.8963	-7.6493
H	-4.4964	-2.8896	-6.2930
H	-2.8018	-2.7376	-6.8188
N	-2.2233	2.8945	-4.0751
O	-1.9709	5.0875	-3.6305
Br	-4.4010	4.0397	-6.4139
C	0.0002	1.2913	-5.1604
H	0.1775	2.3603	-5.1834
C	-1.3152	0.8083	-5.0741
C	-2.4838	1.7606	-4.9941
H	-3.3939	1.2236	-4.6596
H	-2.7052	2.0676	-6.0213
C	-1.8770	2.5481	-2.6723
H	-1.0787	1.7766	-2.6539
H	-1.4364	3.4003	-2.1158
C	-2.2667	4.2373	-4.4567
C	-2.6630	4.7444	-5.8570
C	-2.8542	6.2782	-5.8464
H	-3.1772	6.6409	-6.8465
H	-3.6335	6.5684	-5.1083
H	-1.9077	6.7986	-5.5812
C	-1.5669	4.4309	-6.8955
H	-1.8682	4.8079	-7.8962
H	-0.6153	4.9278	-6.6094
H	-1.3492	3.3543	-7.0036
N	4.3919	-2.2835	2.3105
O	4.7343	-4.3277	1.4273
Br	6.6274	-3.3925	4.6243
C	5.2173	0.1693	0.9107
H	5.6003	-0.7446	0.4710
C	4.7844	0.1702	2.2456
C	4.8306	-1.0906	3.0748
H	4.1909	-0.9805	3.9718
H	5.8491	-1.1683	3.4680
C	3.0290	-2.2342	1.7221
H	2.8839	-1.2814	1.1714
H	2.8665	-3.0153	0.9515
C	5.1834	-3.4174	2.1090
C	6.5993	-3.6193	2.6820
C	7.0785	-5.0718	2.4568
H	7.1309	-5.3126	1.3719
H	8.0904	-5.2225	2.8913
H	6.3860	-5.7909	2.9434
C	7.6185	-2.6923	1.9898
H	7.6885	-2.9391	0.9083
H	7.3651	-1.6208	2.0584
H	8.6252	-2.8231	2.4427
N	-4.1902	2.9960	-1.8148
O	-5.4561	1.7338	-3.1844
Br	-6.0144	5.5322	-3.1421
C	-4.4038	2.7320	1.1102
H	-5.1899	2.2254	0.5629
C	-3.6835	3.7675	0.4931
C	-3.9761	4.1688	-0.9331
H	-3.1423	4.7786	-1.3367
H	-4.8271	4.8556	-0.8947
C	-3.0826	2.0095	-1.8911
H	-2.7418	1.7372	-0.8701
H	-3.3995	1.0430	-2.3342
C	-5.3608	2.7695	-2.5434
C	-6.5616	3.7318	-2.6055
C	-7.5576	3.2896	-3.7015
H	-7.9749	2.2832	-3.4797
H	-8.4067	4.0038	-3.7734
H	-7.0564	3.2522	-4.6926
C	-7.3342	3.7513	-1.2708
H	-6.7236	4.0657	-0.4066
H	-8.1960	4.4486	-1.3368
H	-7.7249	2.7363	-1.0402
N	2.0170	-3.6120	3.5547
O	2.6750	-2.4949	5.3951
Br	3.8120	-6.1335	4.9552
C	-0.8255	-4.2453	3.1234
H	-0.6010	-3.8971	4.1243
C	0.1999	-4.7780	2.3266
C	1.6188	-4.8484	2.8385
H	2.3204	-5.0229	1.9988
H	1.6888	-5.7547	3.4477
C	1.9306	-2.3434	2.7877
H	0.9464	-2.2688	2.2811
H	1.9665	-1.4466	3.4387
C	2.4366	-3.5804	4.8870
C	2.6240	-4.8183	5.7832
C	3.3336	-4.4319	7.1015
H	4.3217	-3.9692	6.8914
H	2.7231	-3.7111	7.6875
H	3.5043	-5.3300	7.7341
C	1.2670	-5.4451	6.1654
H	0.6406	-4.7018	6.7037
H	0.6806	-5.7997	5.3008
H	1.4219	-6.3189	6.8341
N	-4.0389	-2.5328	2.6839
O	-5.9990	-1.8624	1.8011
Br	-6.0201	-3.7235	5.1627
C	-2.4128	-4.5810	1.3243
H	-3.4190	-4.4925	0.9322
C	-2.1282	-4.1204	2.6196
C	-3.2031	-3.4781	3.4635
H	-2.7488	-2.9392	4.3186
H	-3.7702	-4.2947	3.9215
C	-3.3269	-1.4147	2.0120
H	-2.4519	-1.8012	1.4499
H	-3.9448	-0.9183	1.2362
C	-5.4217	-2.6529	2.5331
C	-6.2966	-3.7145	3.2266
C	-7.7959	-3.3826	3.0521
H	-8.0242	-2.3784	3.4704
H	-8.0859	-3.3910	1.9780
H	-8.4280	-4.1271	3.5834
C	-6.0668	-5.1132	2.6169
H	-6.3365	-5.1099	1.5395
H	-5.0235	-5.4638	2.6881
H	-6.7028	-5.8647	3.1329
N	3.3999	0.2132	-4.2865
O	5.2031	-1.0648	-3.8560
Br	5.3451	1.3912	-6.8063
C	0.8476	-0.9773	-5.1593
H	1.6833	-1.6662	-5.1831
C	1.0866	0.4056	-5.1773
C	2.4967	0.9438	-5.2083
H	2.5009	2.0196	-4.9415
H	2.8173	0.9164	-6.2549
C	3.0020	0.1730	-2.8559
H	1.9393	-0.1327	-2.7630
H	3.5535	-0.5975	-2.2792
C	4.5685	-0.4374	-4.6898
C	5.1332	-0.4298	-6.1242
C	6.5620	-1.0201	-6.1482
H	6.9855	-0.9806	-7.1760
H	7.2351	-0.4416	-5.4793
H	6.5625	-2.0820	-5.8179
C	4.2701	-1.2894	-7.0694
H	4.2533	-2.3443	-6.7188
H	3.2200	-0.9569	-7.1405
H	4.6919	-1.2710	-8.0968
N	-3.9415	0.2524	3.7821
O	-3.2395	-0.7693	5.6633
Br	-6.9676	0.0761	5.3215
C	-3.0791	2.9923	3.1216
H	-2.8389	2.6868	4.1335
C	-4.0902	2.3230	2.4148
C	-4.8393	1.1713	3.0420
H	-5.3816	0.5988	2.2634
H	-5.6279	1.6113	3.6597
C	-2.8302	-0.3601	3.0085
H	-2.2823	0.4226	2.4431
H	-2.0545	-0.8135	3.6590
C	-4.0737	-0.0431	5.1414
C	-5.1994	0.4791	6.0547
C	-5.1729	-0.2455	7.4200
H	-4.2204	-0.0481	7.9595
H	-6.0103	0.1006	8.0650
H	-5.2804	-1.3429	7.2816
C	-5.0372	1.9868	6.3374
H	-5.0820	2.6175	5.4333
H	-5.8404	2.3383	7.0201
H	-4.0570	2.1809	6.8237
N	4.5810	2.0063	-2.1995
O	4.0350	3.6434	-3.6464
Br	7.6134	2.2434	-3.7066
C	4.6343	2.5111	0.7053
H	4.5655	3.4119	0.1071
C	5.1242	1.3294	0.1284
C	5.5418	1.2942	-1.3221
H	5.6400	0.2458	-1.6677
H	6.5577	1.6964	-1.3625
C	3.1726	1.5333	-2.1678
H	2.8251	1.4383	-1.1176
H	2.4674	2.2598	-2.6194
C	4.9225	3.0866	-3.0174
C	6.3472	3.6438	-3.1933
C	6.3957	4.6545	-4.3624
H	6.0646	4.1724	-5.3074
H	5.7381	5.5288	-4.1641
H	7.4300	5.0306	-4.5147
C	6.8150	4.3912	-1.9278
H	7.8423	4.7881	-2.0749
H	6.1380	5.2474	-1.7174
H	6.8336	3.7633	-1.0209
