276

O	-2.7310	5.0727	2.3468
N	-2.4924	3.0833	3.3892
C	-2.8431	-0.4036	4.2092
H	-2.1583	-0.3812	5.0481
C	-3.3887	0.7906	3.7146
C	-3.0454	2.1096	4.3584
H	-2.3167	1.9661	5.1840
H	-3.9892	2.4756	4.8127
C	-1.4394	2.6387	2.4451
H	-1.1712	3.4271	1.7111
H	-1.8087	1.7887	1.8353
C	-2.9721	4.3851	3.3259
C	-3.7711	5.0064	4.4157
C	-4.1297	5.4959	6.7737
H	-3.8411	5.3636	7.8086
Br	-6.1983	7.1954	7.8244
C	-5.2152	6.3131	6.4448
C	-5.5757	6.4867	5.1053
H	-6.4092	7.1260	4.8462
C	-4.8561	5.8407	4.0952
H	-5.1498	5.9889	3.0627
C	-3.4077	4.8526	5.7659
H	-2.5602	4.2415	6.0438
O	3.3221	-1.9169	-4.8982
N	2.4661	-3.2288	-3.2714
C	1.8806	-4.7346	-0.0553
H	1.0786	-5.3826	-0.3885
C	2.7570	-4.1627	-0.9885
C	2.6051	-4.4598	-2.4585
H	1.7277	-5.1151	-2.6381
H	3.5095	-5.0366	-2.7423
C	1.5264	-2.1739	-2.8208
H	1.5758	-1.2663	-3.4580
H	1.8012	-1.8287	-1.8030
C	3.2249	-3.0353	-4.4171
C	3.9330	-4.1401	-5.1148
C	3.9625	-6.3886	-6.0520
H	3.4711	-7.3405	-6.2117
Br	6.1337	-7.5402	-7.5457
C	5.2421	-6.1638	-6.5658
C	5.8666	-4.9299	-6.3655
H	6.8546	-4.7474	-6.7692
C	5.2155	-3.9215	-5.6468
H	5.7151	-2.9708	-5.5027
C	3.3083	-5.3829	-5.3373
H	2.3107	-5.5736	-4.9670
O	0.3885	2.0110	5.8743
N	0.3822	3.3018	4.0200
C	1.3833	4.8174	0.9139
H	0.4914	5.4224	0.8015
C	1.7134	4.2761	2.1646
C	0.8444	4.5473	3.3660
H	-0.0378	5.1579	3.0827
H	1.4637	5.1628	4.0506
C	-0.1633	2.2085	3.1794
H	-0.3906	1.2963	3.7698
H	0.5926	1.8894	2.4327
C	0.4875	3.1295	5.3937
C	0.7076	4.2578	6.3357
C	0.1657	6.4933	7.1380
H	-0.3849	7.4181	7.0228
Br	1.2642	7.7278	9.4919
C	1.0363	6.3231	8.2175
C	1.7363	5.1227	8.3656
H	2.4053	4.9823	9.2053
C	1.5714	4.0936	7.4322
H	2.1217	3.1695	7.5643
C	-0.0048	5.4666	6.2064
H	-0.6981	5.6145	5.3912
O	-0.9797	-5.1669	-3.3230
N	-0.3539	-3.1556	-4.1380
C	-0.4209	0.3208	-5.0678
H	0.5881	0.3414	-5.4612
C	-1.0819	-0.9040	-4.8907
C	-0.4042	-2.1972	-5.2660
H	0.6276	-2.0090	-5.6284
H	-0.9831	-2.6017	-6.1208
C	0.0761	-2.6733	-2.8037
H	-0.0142	-3.4572	-2.0229
H	-0.5851	-1.8494	-2.4651
C	-0.7404	-4.4793	-4.3026
C	-0.8696	-5.1242	-5.6365
C	0.0014	-5.6006	-7.8597
H	0.7550	-5.4419	-8.6204
Br	-1.1997	-7.3831	-9.7707
C	-1.0653	-6.4724	-8.0970
C	-2.0283	-6.6796	-7.1057
H	-2.8510	-7.3610	-7.2824
C	-1.9310	-6.0129	-5.8807
H	-2.6871	-6.1877	-5.1244
C	0.1031	-4.9365	-6.6353
H	0.9477	-4.2817	-6.4687
O	0.7779	-2.9969	5.3960
N	-1.1226	-2.9130	4.1785
C	-4.0822	-1.6659	2.5535
H	-4.3614	-2.6134	2.1061
C	-3.1783	-1.6335	3.6245
C	-2.6046	-2.9130	4.1776
H	-2.9669	-3.7887	3.5987
H	-3.0141	-3.0052	5.2046
C	-0.4043	-2.4654	2.9616
H	0.6948	-2.4231	3.1127
H	-0.7018	-1.4285	2.7030
C	-0.4060	-3.2843	5.3078
C	-1.0082	-4.0414	6.4355
C	-2.3653	-5.8809	7.2775
H	-3.0217	-6.7200	7.0857
Br	-2.7093	-6.5623	10.0504
C	-2.0185	-5.5448	8.5885
C	-1.1624	-4.4658	8.8277
H	-0.8834	-4.2075	9.8419
C	-0.6570	-3.7197	7.7587
H	0.0066	-2.8884	7.9634
C	-1.8593	-5.1403	6.2068
H	-2.1263	-5.4314	5.2013
O	3.1879	3.0974	-4.3527
N	0.9408	2.9084	-4.2263
C	-2.3723	1.5022	-4.2515
H	-2.8800	2.4297	-4.0111
C	-1.0583	1.5260	-4.7390
C	-0.3481	2.8380	-4.9543
H	-0.9891	3.6877	-4.6402
H	-0.2034	2.9236	-6.0511
C	0.9881	2.4802	-2.8080
H	2.0202	2.4913	-2.3993
H	0.6514	1.4272	-2.7163
C	2.1017	3.3273	-4.8617
C	2.0970	4.0684	-6.1499
C	1.2438	5.8524	-7.5726
H	0.5389	6.6570	-7.7389
Br	2.2761	6.5512	-10.1644
C	2.2060	5.5496	-8.5392
C	3.1191	4.5154	-8.3129
H	3.8727	4.2833	-9.0555
C	3.0681	3.7808	-7.1244
H	3.7851	2.9846	-6.9659
C	1.1922	5.1233	-6.3823
H	0.4518	5.3889	-5.6418
O	-2.3774	-5.5473	1.5116
N	-0.3186	-4.7877	2.0459
C	3.0847	-3.6572	1.7510
H	3.2226	-3.4660	2.8086
C	2.0338	-4.4767	1.3151
C	1.1010	-5.1141	2.3117
H	1.3578	-4.8031	3.3459
H	1.2887	-6.2062	2.2421
C	-0.6907	-3.3800	1.7640
H	-1.7616	-3.2737	1.4915
H	-0.1291	-3.0072	0.8829
C	-1.2916	-5.7778	2.0183
C	-1.0835	-7.1322	2.5965
C	-0.3429	-8.5772	4.4108
H	0.1345	-8.6939	5.3753
Br	-0.6617	-11.4342	4.4984
C	-0.8359	-9.6936	3.7306
C	-1.4601	-9.5345	2.4905
H	-1.8510	-10.3953	1.9636
C	-1.5871	-8.2605	1.9264
H	-2.0752	-8.1567	0.9645
C	-0.4715	-7.3032	3.8529
H	-0.0999	-6.4534	4.4067
O	-1.5867	5.4460	-2.5539
N	0.5022	4.7923	-1.9976
C	3.3696	3.8208	-0.0530
H	4.0187	3.6497	-0.9036
C	2.2027	4.5841	-0.2006
C	1.8517	5.1898	-1.5356
H	2.5983	4.9035	-2.3051
H	1.9288	6.2878	-1.3957
C	0.1067	3.3652	-1.9176
H	-0.9533	3.2048	-2.2057
H	0.1793	3.0084	-0.8697
C	-0.4043	5.7347	-2.4644
C	-0.0033	7.1046	-2.8824
C	1.4644	8.6057	-4.1158
H	2.3482	8.7569	-4.7222
Br	1.0948	11.4452	-4.3845
C	0.6483	9.6888	-3.7800
C	-0.4967	9.4848	-3.0053
H	-1.1365	10.3195	-2.7496
C	-0.8242	8.1993	-2.5607
H	-1.7167	8.0604	-1.9620
C	1.1386	7.3201	-3.6774
H	1.7743	6.4958	-3.9662
O	-5.2109	-2.9210	-1.7360
N	-5.0693	-1.1956	-0.2858
C	-4.2908	0.7463	2.6423
H	-4.7261	1.6680	2.2735
C	-4.6338	-0.4784	2.0509
C	-5.6212	-0.5263	0.9141
H	-5.9542	0.4969	0.6383
H	-6.5080	-1.0634	1.3093
C	-3.7099	-0.8284	-0.7510
H	-3.3703	-1.4584	-1.5996
H	-2.9703	-1.0068	0.0564
C	-5.7843	-2.1816	-0.9525
C	-7.2454	-2.3835	-0.7693
C	-9.5123	-1.5032	-0.6316
H	-10.1835	-0.6544	-0.6036
Br	-11.9036	-3.0881	-0.4279
C	-10.0199	-2.8034	-0.5701
C	-9.1483	-3.8947	-0.6169
H	-9.5374	-4.9039	-0.5779
C	-7.7685	-3.6877	-0.7195
H	-7.1083	-4.5463	-0.7558
C	-8.1354	-1.2931	-0.7391
H	-7.7684	-0.2792	-0.8047
O	6.0758	0.3047	-1.2999
N	5.0290	1.3161	0.4270
C	2.8832	3.5139	2.3013
H	3.1458	3.1115	3.2725
C	3.7092	3.2747	1.1937
C	4.9778	2.4752	1.3475
H	5.0910	2.1151	2.3910
H	5.8059	3.1879	1.1543
C	3.8372	0.4429	0.3038
H	3.9627	-0.3335	-0.4797
H	2.9593	1.0399	-0.0179
C	6.1543	1.0623	-0.3463
C	7.4835	1.6663	-0.0627
C	9.2675	2.2434	1.4905
H	9.6417	2.2931	2.5051
Br	11.8090	3.3739	0.7596
C	10.0608	2.6796	0.4264
C	9.5743	2.6031	-0.8820
H	10.1893	2.9321	-1.7101
C	8.2946	2.0962	-1.1272
H	7.9356	2.0428	-2.1477
C	7.9900	1.7328	1.2492
H	7.4031	1.3838	2.0864
O	-5.5229	2.6494	-1.0870
N	-4.6038	0.9509	-2.2582
C	-2.3966	-0.9159	-4.4016
H	-2.9117	-1.8618	-4.2828
C	-3.0427	0.2837	-4.0704
C	-4.4636	0.2705	-3.5672
H	-4.8392	-0.7707	-3.4778
H	-5.0647	0.7699	-4.3538
C	-3.6341	0.6421	-1.1810
H	-3.7860	1.2769	-0.2831
H	-2.6024	0.8654	-1.5225
C	-5.6009	1.8927	-2.0427
C	-6.7909	2.0281	-2.9225
C	-8.6521	1.0425	-4.1470
H	-9.1816	0.1632	-4.4909
Br	-10.7061	2.5146	-5.5201
C	-9.1248	2.3178	-4.4664
C	-8.4418	3.4485	-4.0106
H	-8.8087	4.4385	-4.2485
C	-7.2828	3.3059	-3.2401
H	-6.7673	4.1943	-2.8946
C	-7.4977	0.8973	-3.3743
H	-7.1630	-0.0996	-3.1234
O	4.6576	-0.0325	4.1236
N	4.6447	-1.0707	2.1179
C	3.8051	-3.3442	-0.5418
H	4.4919	-2.9178	-1.2632
C	3.9672	-3.0800	0.8257
C	5.1078	-2.2194	1.3058
H	5.7023	-1.8413	0.4485
H	5.7666	-2.8943	1.8902
C	3.5065	-0.2567	1.6282
H	3.1935	0.5150	2.3623
H	2.6133	-0.8986	1.4839
C	5.2307	-0.7735	3.3414
C	6.5544	-1.3102	3.7557
C	8.8967	-1.7827	3.2880
H	9.7233	-1.8020	2.5894
Br	10.8006	-2.8005	5.1884
C	9.0838	-2.1940	4.6101
C	8.0147	-2.1570	5.5092
H	8.1567	-2.4668	6.5365
C	6.7565	-1.7145	5.0868
H	5.9399	-1.6908	5.7980
C	7.6432	-1.3363	2.8635
H	7.5281	-1.0051	1.8416
