444

O	3.9897	4.1363	-3.2132
O	1.4947	1.9092	-6.1894
O	-3.5059	3.7808	3.1328
O	1.5351	5.8323	2.4389
O	-4.0643	-1.5259	4.7736
O	-1.1590	-4.6033	4.4103
O	1.5953	-6.6262	-1.0208
O	0.3447	-4.7290	-4.6782
O	4.4289	-2.7066	3.2094
O	5.7762	2.4441	1.8620
O	-6.2663	1.4029	-0.7779
O	-4.0137	0.2658	-5.1363
N	3.5215	1.9684	-3.5741
N	0.8947	3.2165	-4.4631
N	-2.0093	4.5736	1.6528
N	0.3569	4.1972	3.4379
N	-1.8211	-1.4512	4.7405
N	-2.5351	-3.7234	2.8715
N	-0.3222	-5.5236	-1.4208
N	1.8357	-4.1637	-3.0942
N	4.8540	-1.2380	1.5596
N	4.4097	1.2385	3.1829
N	-5.0795	-0.2771	-1.6833
N	-3.8984	1.8136	-3.5073
C	4.8768	-1.1026	-0.9025
C	4.6987	-0.1227	-1.8891
H	5.1001	0.8719	-1.7373
C	3.9996	-0.4213	-3.0711
C	3.5259	-1.7252	-3.2788
H	3.0230	-1.9763	-4.2048
C	3.6879	-2.7077	-2.2919
C	4.3724	-2.3924	-1.1129
H	4.5222	-3.1551	-0.3597
C	5.6158	-0.7868	0.3715
H	5.8163	0.2989	0.4488
H	6.6053	-1.2314	0.2716
C	3.7879	0.6239	-4.1395
H	4.6512	0.5709	-4.8010
H	2.9377	0.3283	-4.7863
C	3.1996	-4.1151	-2.5126
H	3.9645	-4.5826	-3.1281
H	3.2081	-4.6797	-1.5585
C	0.5004	2.1466	4.8079
C	1.8950	2.0312	4.6933
H	2.4949	2.9089	4.4947
C	2.5116	0.7749	4.7295
C	1.7309	-0.3677	4.9628
H	2.2079	-1.3396	5.0132
C	0.3395	-0.2666	5.1169
C	-0.2689	0.9980	5.0447
H	-1.3423	1.0879	5.1493
C	-0.1739	3.4830	4.6236
H	-0.0690	4.0226	5.5630
H	-1.2704	3.3589	4.5132
C	3.9983	0.6536	4.4856
H	4.3120	-0.4099	4.5126
H	4.4721	1.1193	5.3504
C	-0.4750	-1.5186	5.3573
H	-0.4812	-1.7069	6.4321
H	0.0669	-2.3905	4.9403
C	-2.8957	3.8431	-2.4915
C	-1.8009	3.9442	-3.3615
H	-1.8752	3.5322	-4.3596
C	-0.5882	4.4882	-2.9165
C	-0.4991	4.9959	-1.6088
H	0.4311	5.4310	-1.2623
C	-1.6113	4.9613	-0.7537
C	-2.8024	4.3727	-1.1997
H	-3.6520	4.3066	-0.5328
C	-4.1601	3.1585	-2.9375
H	-4.8713	3.0613	-2.0931
H	-4.6293	3.8560	-3.6292
C	0.6093	4.5308	-3.8367
H	0.4019	5.3257	-4.5513
H	1.5091	4.8666	-3.2827
C	-1.5360	5.5435	0.6376
H	-0.5011	5.8550	0.8750
H	-2.0906	6.4811	0.6193
C	-2.5763	-4.4379	-1.3500
C	-3.2416	-3.4624	-2.1075
H	-3.0945	-3.4223	-3.1802
C	-4.1341	-2.5685	-1.4935
C	-4.3255	-2.6368	-0.1056
H	-4.9930	-1.9370	0.3816
C	-3.6516	-3.5924	0.6635
C	-2.8062	-4.5147	0.0291
H	-2.2801	-5.2576	0.6125
C	-1.6800	-5.4493	-2.0184
H	-2.2374	-6.3829	-1.9379
H	-1.5873	-5.2319	-3.1020
C	-4.9308	-1.6000	-2.3353
H	-4.4494	-1.4711	-3.3237
H	-5.8749	-2.0900	-2.5717
C	-3.8290	-3.6127	2.1600
H	-4.5321	-4.4140	2.3782
H	-4.3454	-2.6899	2.4953
C	2.3097	2.0810	-2.7214
H	2.3184	2.9844	-2.0770
H	2.2743	1.2398	-1.9987
C	1.0136	2.0555	-3.5413
H	0.1628	2.0406	-2.8320
H	0.9189	1.0845	-4.0695
C	-1.2547	3.2952	1.7171
H	-1.2704	2.8031	0.7211
H	-1.7148	2.5471	2.3948
C	0.2092	3.4892	2.1370
H	0.6665	2.4845	2.2073
H	0.7581	3.9777	1.3056
C	-1.8434	-1.3381	3.2601
H	-1.0932	-0.5921	2.9219
H	-2.8062	-0.9369	2.8810
C	-1.5301	-2.6706	2.5681
H	-1.4866	-2.4823	1.4755
H	-0.4968	-2.9928	2.8151
C	0.3486	-4.2404	-1.0827
H	1.2234	-4.3850	-0.4149
H	-0.3226	-3.5977	-0.4805
C	0.7734	-3.4584	-2.3314
H	-0.1214	-3.2376	-2.9499
H	1.1299	-2.4577	-2.0085
C	3.5113	-0.6286	1.7340
H	2.9213	-1.1006	2.5434
H	2.9022	-0.7973	0.8201
C	3.5783	0.8824	1.9978
H	2.5460	1.2446	2.1491
H	3.8975	1.3903	1.0664
C	-3.8123	0.4460	-1.3989
H	-3.1275	-0.2104	-0.8201
H	-3.9544	1.3285	-0.7423
C	-3.0820	0.8902	-2.6731
H	-2.1371	1.3846	-2.3707
H	-2.7328	-0.0043	-3.2274
C	4.3294	3.0954	-3.7568
C	5.6303	3.1577	-4.5957
C	6.7348	2.2067	-4.0286
H	6.4441	1.1469	-3.9795
H	6.9684	2.4926	-2.9782
C	8.0162	2.3001	-4.8822
H	8.7732	1.5837	-4.4934
C	7.6878	1.9511	-6.3520
H	7.2745	0.9211	-6.4152
H	8.6182	1.9734	-6.9612
C	6.6669	2.9636	-6.9186
H	6.4602	2.7225	-7.9840
C	5.3556	2.8869	-6.1101
H	4.6482	3.6494	-6.4967
H	4.8738	1.9206	-6.3258
C	6.2339	4.6085	-4.5214
H	6.4540	4.8832	-3.4649
H	5.5009	5.3535	-4.9050
C	8.5804	3.7315	-4.7988
H	9.5212	3.8042	-5.3880
H	8.8285	3.9828	-3.7440
C	7.2413	4.3912	-6.8220
H	6.5145	5.1229	-7.2384
H	8.1728	4.4706	-7.4247
C	7.5359	4.7225	-5.3466
H	7.9337	5.7580	-5.2712
C	1.0845	3.0039	-5.8341
C	0.7989	4.0231	-6.9667
C	1.0235	3.3315	-8.3634
H	0.3638	2.4412	-8.4665
H	2.0729	2.9692	-8.4532
C	0.7330	4.3032	-9.5306
H	0.9026	3.7841	-10.4987
C	-0.7307	4.7769	-9.4530
H	-1.4186	3.9087	-9.5591
H	-0.9505	5.4776	-10.2877
C	-0.9668	5.4761	-8.1008
H	-2.0232	5.8208	-8.0451
C	-0.6920	4.4816	-6.9552
H	-1.0083	4.9631	-6.0186
H	-1.3428	3.5914	-7.0737
C	1.7765	5.2412	-6.9323
H	2.8194	4.8822	-7.0544
H	1.7787	5.8043	-5.9869
C	1.6705	5.5220	-9.4313
H	1.4673	6.2295	-10.2650
H	2.7304	5.1955	-9.5240
C	-0.0202	6.6892	-7.9653
H	-0.1852	7.1931	-6.9875
H	-0.2426	7.4318	-8.7627
C	1.4496	6.2247	-8.0769
H	2.1224	7.1068	-8.0086
C	-3.1461	4.7329	2.4543
C	-4.0017	6.0198	2.5808
C	-4.7636	6.3554	1.2570
H	-5.4316	5.5062	0.9857
H	-4.1178	6.5082	0.3802
C	-5.6078	7.6351	1.4294
H	-6.1059	7.8833	0.4668
C	-6.6812	7.3966	2.5098
H	-7.3490	6.5607	2.2057
H	-7.3149	8.3047	2.6223
C	-5.9905	7.0640	3.8467
H	-6.7627	6.8767	4.6250
C	-5.1135	5.8033	3.6728
H	-5.7696	4.9467	3.3952
H	-4.6494	5.5527	4.6537
C	-3.1459	7.2262	3.0772
H	-2.2829	7.4672	2.4354
H	-2.7171	6.9791	4.0727
C	-4.6916	8.8073	1.8511
H	-5.2909	9.7411	1.9367
H	-3.9144	8.9817	1.0749
C	-5.1072	8.2515	4.2769
H	-4.6349	8.0383	5.2612
H	-5.7294	9.1660	4.3975
C	-4.0219	8.4910	3.2084
H	-3.3859	9.3511	3.5176
C	1.0679	5.4029	3.4829
C	1.3346	6.2571	4.7494
C	0.0070	6.7648	5.3933
H	-0.7065	5.9708	5.6657
H	-0.5294	7.3997	4.6568
C	0.3053	7.6058	6.6529
H	-0.6525	7.9133	7.1266
C	1.1324	6.7731	7.6580
H	0.5674	5.8606	7.9505
H	1.3108	7.3649	8.5825
C	2.4848	6.3750	7.0252
H	3.0863	5.8011	7.7637
C	2.2298	5.4998	5.7838
H	1.8223	4.5427	6.1371
H	3.1990	5.2495	5.3098
C	2.1378	7.5507	4.3549
H	1.5661	8.1501	3.6102
H	3.1060	7.2771	3.8773
C	1.0976	8.8627	6.2435
H	1.2961	9.4940	7.1378
H	0.5020	9.4741	5.5318
C	3.2630	7.6369	6.6087
H	4.2408	7.3517	6.1589
H	3.4793	8.2629	7.5017
C	2.4271	8.4360	5.5905
H	2.9919	9.3406	5.2763
C	-3.0350	-1.4785	5.4330
C	-3.2151	-1.4443	6.9728
C	-2.5153	-0.2089	7.6240
H	-2.9272	0.7281	7.1871
H	-1.4292	-0.1661	7.4529
C	-2.7359	-0.2047	9.1517
H	-2.1963	0.6579	9.6012
C	-4.2418	-0.0723	9.4518
H	-4.6336	0.8783	9.0273
H	-4.4096	-0.0402	10.5502
C	-4.9883	-1.2716	8.8377
H	-6.0771	-1.1708	9.0388
C	-4.7450	-1.3035	7.3130
H	-5.3196	-2.1552	6.8812
H	-5.1553	-0.3721	6.8620
C	-2.7459	-2.7776	7.6373
H	-1.6905	-3.0277	7.4465
H	-3.3272	-3.6248	7.2210
C	-2.1969	-1.5206	9.7576
H	-2.3174	-1.5036	10.8629
H	-1.1103	-1.6203	9.5441
C	-4.4687	-2.5785	9.4659
H	-5.0266	-3.4477	9.0523
H	-4.6396	-2.5683	10.5652
C	-2.9630	-2.7244	9.1656
H	-2.5874	-3.6642	9.6258
C	-2.2030	-4.7264	3.7866
C	-3.0278	-6.0077	4.0783
C	-4.3727	-5.6922	4.8074
H	-5.0409	-5.0056	4.2655
H	-4.1616	-5.1834	5.7714
C	-5.1506	-6.9957	5.0885
H	-6.1234	-6.7492	5.5671
C	-5.4059	-7.7515	3.7648
H	-5.9987	-7.1146	3.0723
H	-6.0012	-8.6691	3.9638
C	-4.0598	-8.1327	3.1092
H	-4.2518	-8.6973	2.1701
C	-3.2678	-6.8510	2.7847
H	-3.8283	-6.3205	2.0014
H	-2.2901	-7.1236	2.3331
C	-2.2133	-6.9345	5.0547
H	-2.0023	-6.4014	6.0093
H	-1.2301	-7.1994	4.6057
C	-4.3279	-7.8857	6.0404
H	-4.8910	-8.8157	6.2740
H	-4.1512	-7.3543	7.0018
C	-3.2400	-9.0128	4.0717
H	-2.2732	-9.2956	3.5982
H	-3.7902	-9.9541	4.2896
C	-2.9823	-8.2349	5.3757
H	-2.3792	-8.8620	6.0671
C	0.4039	-6.7109	-1.2761
C	-0.1760	-8.1423	-1.3731
C	-1.2696	-8.3716	-0.2814
H	-2.1161	-7.6682	-0.3319
H	-0.8230	-8.2175	0.7263
C	-1.8322	-9.8042	-0.3725
H	-2.6401	-9.9325	0.3805
C	-2.4013	-10.0496	-1.7871
H	-3.2111	-9.3187	-2.0020
H	-2.8500	-11.0658	-1.8416
C	-1.2768	-9.9156	-2.8397
H	-1.6903	-10.1244	-3.8501
C	-0.7013	-8.4847	-2.8072
H	0.1320	-8.4095	-3.5377
H	-1.4754	-7.8083	-3.1958
C	0.9566	-9.1928	-1.0733
H	1.3954	-9.0143	-0.0653
H	1.7850	-9.0906	-1.8095
C	-0.7029	-10.8132	-0.0819
H	-1.1019	-11.8503	-0.1170
H	-0.2970	-10.6478	0.9404
C	-0.1524	-10.9241	-2.5322
H	0.6543	-10.8386	-3.2939
H	-0.5487	-11.9624	-2.5821
C	0.4146	-10.6394	-1.1286
H	1.2382	-11.3537	-0.9114
C	1.4952	-4.8268	-4.2770
C	2.4497	-5.6861	-5.1405
C	1.6436	-6.3566	-6.3119
H	1.1522	-5.5815	-6.9417
H	0.8339	-7.0024	-5.9030
C	2.5638	-7.2148	-7.2127
H	1.9632	-7.6728	-8.0286
C	3.6625	-6.3225	-7.8210
H	3.2050	-5.5376	-8.4624
H	4.3314	-6.9298	-8.4694
C	4.4777	-5.6708	-6.6865
H	5.2733	-5.0329	-7.1270
C	3.5406	-4.8011	-5.8246
H	3.0473	-4.0421	-6.4728
H	4.1613	-4.2162	-5.1278
C	3.0780	-6.8690	-4.3292
H	2.2687	-7.5312	-3.9557
H	3.6352	-6.5761	-3.4281
C	3.2190	-8.3276	-6.3714
H	3.8848	-8.9470	-7.0117
H	2.4367	-9.0028	-5.9577
C	5.1226	-6.7666	-5.8089
H	5.7055	-6.2999	-4.9843
H	5.8343	-7.3655	-6.4196
C	4.0280	-7.6898	-5.2265
H	4.5057	-8.4941	-4.6223
C	5.2550	-2.2586	2.4279
C	6.6713	-2.8744	2.5028
C	6.9803	-3.7670	1.2575
H	6.9081	-3.2493	0.2907
H	6.2361	-4.5928	1.1994
C	8.3981	-4.3648	1.3634
H	8.6190	-4.9566	0.4482
C	9.4335	-3.2258	1.5006
H	9.3774	-2.5544	0.6152
H	10.4599	-3.6528	1.5305
C	9.1641	-2.4195	2.7904
H	9.9310	-1.6208	2.8949
C	7.7622	-1.7791	2.7217
H	7.7824	-0.9913	1.9520
H	7.5545	-1.2495	3.6753
C	6.7674	-3.8273	3.7496
H	6.0121	-4.6422	3.6780
H	6.5472	-3.2636	4.6841
C	8.4710	-5.2863	2.5961
H	9.4809	-5.7460	2.6674
H	7.7372	-6.1156	2.4952
C	9.2327	-3.3551	4.0135
H	9.0516	-2.7775	4.9460
H	10.2467	-3.8043	4.0934
C	8.1727	-4.4640	3.8644
H	8.2071	-5.1297	4.7532
C	5.5044	2.0945	3.0013
C	6.4062	2.6790	4.1206
C	5.5932	3.6251	5.0583
H	4.7279	3.1499	5.5461
H	5.1736	4.4573	4.4507
C	6.5009	4.2118	6.1589
H	5.8909	4.8427	6.8426
C	7.1543	3.0640	6.9602
H	6.3675	2.4332	7.4286
H	7.7754	3.4852	7.7803
C	8.0342	2.2029	6.0254
H	8.5239	1.3985	6.6172
C	7.1596	1.5695	4.9216
H	6.5104	0.8184	5.3970
H	7.8127	0.9983	4.2271
C	7.5288	3.5757	3.4796
H	7.0780	4.3952	2.8771
H	8.1562	2.9715	2.7855
C	7.5957	5.0783	5.5056
H	8.2426	5.5276	6.2910
H	7.1330	5.9161	4.9392
C	9.1189	3.0832	5.3739
H	9.7651	2.4666	4.7103
H	9.7737	3.5242	6.1580
C	8.4414	4.2025	4.5609
H	9.2199	4.8285	4.0728
C	-6.2939	0.2853	-1.2722
C	-7.6920	-0.3831	-1.3610
C	-7.7503	-1.7263	-0.5634
H	-7.4972	-1.5384	0.5032
H	-7.0362	-2.4874	-0.9101
C	-9.1565	-2.3513	-0.6540
H	-9.1643	-3.3232	-0.1139
C	-10.1823	-1.4032	-0.0033
H	-9.9269	-1.2410	1.0679
H	-11.1964	-1.8589	-0.0373
C	-10.1797	-0.0601	-0.7552
H	-10.9072	0.6325	-0.2799
C	-8.7638	0.5578	-0.6967
H	-8.7851	1.5450	-1.2116
H	-8.5003	0.7536	0.3676
C	-8.1561	-0.5753	-2.8402
H	-7.4710	-1.1701	-3.4648
H	-8.2146	0.4159	-3.3335
C	-9.5221	-2.5833	-2.1369
H	-10.5167	-3.0768	-2.2060
H	-8.7794	-3.2639	-2.6091
C	-10.5796	-0.2959	-2.2246
H	-10.6193	0.6733	-2.7690
H	-11.5963	-0.7452	-2.2761
C	-9.5527	-1.2336	-2.8882
H	-9.8440	-1.4066	-3.9471
C	-4.3401	1.3832	-4.7626
C	-5.2115	2.2030	-5.7445
C	-6.5726	2.6347	-5.1092
H	-6.4969	3.2096	-4.1748
H	-7.1480	1.7263	-4.8364
C	-7.3953	3.4667	-6.1133
H	-8.3326	3.8130	-5.6267
C	-6.5727	4.6918	-6.5726
H	-6.3069	5.3211	-5.6947
H	-7.1818	5.3206	-7.2588
C	-5.2870	4.2265	-7.2931
H	-4.7187	5.1126	-7.6488
C	-4.4132	3.4168	-6.3169
H	-4.0115	4.1077	-5.5609
H	-3.5241	3.0350	-6.8602
C	-5.5908	1.3184	-6.9887
H	-6.1576	0.4167	-6.6636
H	-4.6735	0.9539	-7.5034
C	-7.7470	2.5872	-7.3285
H	-8.3642	3.1656	-8.0504
H	-8.3491	1.7108	-7.0036
C	-5.6543	3.3389	-8.4978
H	-4.7315	3.0103	-9.0248
H	-6.2625	3.9194	-9.2261
C	-6.4462	2.1125	-8.0048
H	-6.6961	1.4603	-8.8694
