348

N	-0.9302	-1.0654	5.0981
O	-2.4503	-2.7359	5.1538
C	1.9482	-1.7263	4.4363
H	1.4030	-2.6295	4.6812
C	1.4760	-0.4888	4.8961
C	0.2346	-0.4207	5.7476
H	0.4995	-0.9197	6.7021
H	-0.0212	0.6325	5.9925
C	-1.2393	-0.7329	3.6868
H	-2.0527	-1.3648	3.2733
H	-0.3576	-0.9391	3.0450
C	-1.7014	-1.9993	5.7762
C	-1.6714	-2.1467	7.2536
C	-1.6646	-3.4293	7.8269
H	-1.6361	-4.3042	7.1864
C	-1.6779	-3.5862	9.2224
C	-1.6489	-4.8662	9.7991
H	-1.6173	-5.7523	9.1772
C	-1.6582	-5.0090	11.1898
H	-1.6325	-5.9974	11.6304
C	-1.7007	-3.8811	12.0129
H	-1.7089	-3.9987	13.0886
C	-1.7327	-2.6016	11.4512
H	-1.7661	-1.7375	12.1058
C	-1.7182	-2.4435	10.0572
C	-1.7459	-1.1659	9.4821
H	-1.7840	-0.2803	10.1047
C	-1.7245	-1.0204	8.0930
H	-1.7510	-0.0238	7.6747
N	-2.8348	1.0724	4.3364
O	-1.7698	2.7438	5.4213
C	-4.4664	1.7309	1.8739
H	-4.2391	2.6348	2.4258
C	-4.4419	0.4937	2.5338
C	-4.1278	0.4273	4.0061
H	-4.9761	0.9280	4.5156
H	-4.1104	-0.6248	4.3605
C	-1.6392	0.7383	3.5261
H	-0.7642	1.3700	3.7855
H	-1.8366	0.9432	2.4534
C	-2.7415	2.0075	5.3571
C	-3.7807	2.1568	6.4087
C	-4.1803	3.4410	6.8179
H	-3.7590	4.3142	6.3329
C	-5.1308	3.5989	7.8392
C	-5.5482	4.8795	8.2359
H	-5.1425	5.7649	7.7619
C	-6.4988	5.0242	9.2507
H	-6.8203	6.0131	9.5513
C	-7.0353	3.8974	9.8784
H	-7.7706	4.0157	10.6636
C	-6.6268	2.6165	9.4943
H	-7.0529	1.7539	9.9935
C	-5.6768	2.4572	8.4738
C	-5.2615	1.1789	8.0774
H	-5.6629	0.2942	8.5563
C	-4.3214	1.0310	7.0551
H	-4.0140	0.0345	6.7715
N	2.5752	-1.2832	-4.4398
O	4.6501	-0.4046	-4.2736
C	1.9212	-3.7979	-2.8880
H	2.9932	-3.6466	-2.9222
C	1.1077	-3.2015	-3.8623
C	1.7258	-2.3781	-4.9632
H	2.3108	-3.0925	-5.5776
H	0.9427	-1.9481	-5.6238
C	2.0411	-0.4118	-3.3659
H	2.8065	0.2887	-2.9716
H	1.7343	-1.0263	-2.4941
C	3.8676	-1.0933	-4.9094
C	4.3577	-1.6883	-6.1788
C	5.6442	-2.2521	-6.2345
H	6.2537	-2.2881	-5.3388
C	6.1378	-2.7810	-7.4379
C	7.4140	-3.3642	-7.4924
H	8.0376	-3.4136	-6.6082
C	7.8930	-3.8919	-8.6951
H	8.8760	-4.3436	-8.7321
C	7.1079	-3.8383	-9.8494
H	7.4851	-4.2476	-10.7774
C	5.8370	-3.2579	-9.8090
H	5.2419	-3.2247	-10.7151
C	5.3416	-2.7295	-8.6073
C	4.0675	-2.1486	-8.5531
H	3.4470	-2.0938	-9.4392
C	3.5820	-1.6315	-7.3497
H	2.5975	-1.1848	-7.3359
N	1.1897	1.2762	-4.9947
O	-0.4300	0.3967	-6.3015
C	0.5969	3.7932	-3.4221
H	-0.1571	3.6414	-4.1848
C	1.8574	3.1960	-3.5679
C	2.1674	2.3715	-4.7905
H	2.1665	3.0848	-5.6398
H	3.1888	1.9404	-4.7292
C	0.8373	0.4065	-3.8469
H	0.0104	-0.2939	-4.0870
H	0.4599	1.0222	-3.0042
C	0.5753	1.0850	-6.2238
C	1.0944	1.6781	-7.4835
C	0.2001	2.2412	-8.4104
H	-0.8587	2.2781	-8.1805
C	0.6708	2.7683	-9.6237
C	-0.2169	3.3508	-10.5426
H	-1.2779	3.4011	-10.3308
C	0.2640	3.8768	-11.7453
H	-0.4232	4.3279	-12.4495
C	1.6281	3.8221	-12.0419
H	1.9944	4.2306	-12.9748
C	2.5224	3.2430	-11.1365
H	3.5767	3.2083	-11.3833
C	2.0534	2.7157	-9.9236
C	2.9398	2.1356	-9.0063
H	3.9999	2.0799	-9.2217
C	2.4638	1.6209	-7.7983
H	3.1674	1.1741	-7.1103
N	4.2139	3.1976	0.0954
O	6.0368	1.8771	0.2898
C	2.8417	3.4134	-2.5928
H	3.8246	2.9721	-2.7084
C	2.5664	4.2013	-1.4672
C	3.6392	4.4544	-0.4384
H	4.4050	5.0699	-0.9516
H	3.2452	5.0608	0.4041
C	3.2969	2.1218	0.5421
H	3.8384	1.1881	0.8052
H	2.6128	1.8370	-0.2841
C	5.5874	3.0028	0.1420
C	6.5622	4.1175	0.0295
C	7.7177	3.9579	-0.7550
H	7.8682	3.0378	-1.3080
C	8.6693	4.9871	-0.8379
C	9.8142	4.8396	-1.6374
H	9.9819	3.9299	-2.2008
C	10.7524	5.8732	-1.7160
H	11.6320	5.7568	-2.3361
C	10.5591	7.0553	-0.9973
H	11.2897	7.8510	-1.0616
C	9.4243	7.2142	-0.1959
H	9.2919	8.1378	0.3557
C	8.4726	6.1864	-0.1119
C	7.3295	6.3345	0.6851
H	7.1657	7.2420	1.2532
C	6.3848	5.3079	0.7556
H	5.5139	5.4457	1.3813
N	3.3192	2.9202	2.9062
O	2.4069	4.9804	3.0747
C	2.1963	0.6784	4.6013
H	1.8500	1.6364	4.9695
C	3.3663	0.6169	3.8311
C	4.1496	1.8713	3.5420
H	4.5519	2.2043	4.5206
H	5.0226	1.6525	2.8903
C	2.4623	2.5554	1.7527
H	1.7982	3.3883	1.4408
H	1.7774	1.7285	2.0334
C	3.3027	4.2172	3.4004
C	4.3466	4.7419	4.3173
C	3.9764	5.5393	5.4147
H	2.9264	5.7289	5.6092
C	4.9537	6.0766	6.2662
C	4.5860	6.8552	7.3753
H	3.5432	7.0543	7.5900
C	5.5685	7.3816	8.2192
H	5.2807	7.9786	9.0751
C	6.9202	7.1402	7.9621
H	7.6757	7.5515	8.6186
C	7.2999	6.3682	6.8599
H	8.3535	6.1926	6.6753
C	6.3236	5.8301	6.0077
C	6.6909	5.0521	4.9016
H	7.7342	4.8588	4.6839
C	5.7110	4.5143	4.0641
H	6.0208	3.9220	3.2148
N	-3.1235	-3.1997	-2.8279
O	-4.5787	-1.8798	-3.9436
C	-0.2772	-3.4182	-3.8334
H	-0.9106	-2.9776	-4.5936
C	-0.8528	-4.2052	-2.8254
C	-2.3385	-4.4570	-2.8173
H	-2.5422	-5.0734	-3.7164
H	-2.6338	-5.0628	-1.9345
C	-2.7654	-2.1228	-1.8740
H	-3.3382	-1.1898	-2.0569
H	-1.7003	-1.8387	-2.0025
C	-4.1516	-3.0054	-3.7400
C	-4.7816	-4.1208	-4.4913
C	-5.0795	-3.9628	-5.8560
H	-4.8074	-3.0434	-6.3618
C	-5.7131	-4.9926	-6.5700
C	-5.9929	-4.8468	-7.9382
H	-5.7262	-3.9378	-8.4634
C	-6.6198	-5.8808	-8.6398
H	-6.8318	-5.7663	-9.6947
C	-6.9750	-7.0620	-7.9840
H	-7.4610	-7.8581	-8.5326
C	-6.7039	-7.2192	-6.6213
H	-6.9880	-8.1421	-6.1289
C	-6.0708	-6.1909	-5.9065
C	-5.7907	-6.3373	-4.5413
H	-6.0635	-7.2441	-4.0153
C	-5.1530	-5.3110	-3.8408
H	-4.9528	-5.4468	-2.7875
N	-4.4096	-2.9182	-0.1737
O	-3.8650	-4.9777	0.5792
C	-4.7608	-0.6737	1.8249
H	-4.7640	-1.6310	2.3325
C	-5.0796	-0.6129	0.4605
C	-5.4497	-1.8681	-0.2859
H	-6.4147	-2.2009	0.1475
H	-5.6334	-1.6513	-1.3597
C	-2.9938	-2.5545	-0.4208
H	-2.2979	-3.3874	-0.1888
H	-2.6900	-1.7268	0.2532
C	-4.7386	-4.2146	0.1977
C	-6.1272	-4.7386	0.1446
C	-6.6135	-5.5338	1.1958
H	-5.9871	-5.7232	2.0606
C	-7.9099	-6.0712	1.1418
C	-8.4073	-6.8482	2.2004
H	-7.7989	-7.0464	3.0742
C	-9.7011	-7.3739	2.1366
H	-10.0820	-7.9697	2.9563
C	-10.5043	-7.1336	1.0192
H	-11.5044	-7.5444	0.9757
C	-10.0199	-6.3640	-0.0424
H	-10.6574	-6.1884	-0.9020
C	-8.7253	-5.8256	0.0108
C	-8.2298	-5.0492	-1.0453
H	-8.8366	-4.8567	-1.9217
C	-6.9418	-4.5128	-0.9785
H	-6.5819	-3.9210	-1.8086
N	-3.9958	3.1687	-1.4085
O	-3.9230	3.3581	-3.6589
C	-5.1011	0.6291	-0.1896
H	-5.3656	0.6873	-1.2383
C	-4.7833	1.8029	0.5091
C	-4.8368	3.1380	-0.1894
H	-5.9065	3.3086	-0.4247
H	-4.5196	3.9549	0.4933
C	-2.6025	2.6677	-1.3323
H	-2.1132	2.6272	-2.3289
H	-2.5936	1.6216	-0.9619
C	-4.5068	3.6178	-2.6184
C	-5.7498	4.4245	-2.7166
C	-6.6818	4.1510	-3.7322
H	-6.5075	3.3226	-4.4103
C	-7.8418	4.9300	-3.8641
C	-8.7856	4.6450	-4.8639
H	-8.6325	3.8198	-5.5494
C	-9.9391	5.4261	-4.9824
H	-10.6658	5.2011	-5.7525
C	-10.1573	6.4958	-4.1109
H	-11.0516	7.0972	-4.2088
C	-9.2244	6.7916	-3.1123
H	-9.4093	7.6255	-2.4459
C	-8.0648	6.0126	-2.9795
C	-7.1238	6.2965	-1.9808
H	-7.2739	7.1251	-1.2995
C	-5.9768	5.5100	-1.8519
H	-5.2640	5.7530	-1.0767
N	-1.6843	4.9403	-0.8642
O	-2.4437	5.7313	1.1115
C	1.3020	4.7945	-1.3305
H	1.0867	5.4212	-0.4737
C	0.3099	4.5835	-2.2990
C	-1.0361	5.2465	-2.1605
H	-0.8465	6.3338	-2.2773
H	-1.7141	4.9445	-2.9875
C	-1.7400	3.5318	-0.4052
H	-2.1358	3.4404	0.6288
H	-0.7167	3.1043	-0.3626
C	-2.1965	5.9521	-0.0638
C	-2.4756	7.3184	-0.5745
C	-2.1358	8.4373	0.2041
H	-1.6318	8.2973	1.1537
C	-2.4302	9.7346	-0.2459
C	-2.0724	10.8562	0.5194
H	-1.5646	10.7378	1.4694
C	-2.3672	12.1427	0.0584
H	-2.0867	13.0048	0.6499
C	-3.0224	12.3199	-1.1625
H	-3.2483	13.3183	-1.5139
C	-3.3860	11.2115	-1.9334
H	-3.8945	11.3675	-2.8772
C	-3.0918	9.9150	-1.4845
C	-3.4480	8.7960	-2.2492
H	-3.9610	8.9142	-3.1958
C	-3.1433	7.5101	-1.7972
H	-3.4333	6.6636	-2.4033
N	1.8140	-4.9406	0.5392
O	1.0049	-5.7280	2.4962
C	-0.0304	-4.7968	-1.8561
H	-0.4645	-5.4224	-1.0857
C	1.3561	-4.5866	-1.8758
C	2.2363	-5.2487	-0.8468
H	2.1793	-6.3356	-1.0604
H	3.2974	-4.9474	-0.9802
C	1.5391	-3.5314	0.9086
H	1.1143	-3.4385	1.9309
H	0.7678	-3.1044	0.2344
C	1.6339	-5.9510	1.4737
C	2.1872	-7.3178	1.2971
C	1.4034	-8.4365	1.6290
H	0.3842	-8.2956	1.9705
C	1.9272	-9.7337	1.5063
C	1.1398	-10.8545	1.8174
H	0.1185	-10.7359	2.1559
C	1.6704	-12.1414	1.6877
H	1.0600	-13.0023	1.9249
C	2.9861	-12.3198	1.2535
H	3.3910	-13.3186	1.1564
C	3.7811	-11.2122	0.9434
H	4.8001	-11.3700	0.6094
C	3.2593	-9.9153	1.0647
C	4.0447	-8.7971	0.7539
H	5.0684	-8.9162	0.4207
C	3.5132	-7.5108	0.8703
H	4.1412	-6.6649	0.6293
N	3.8660	-3.1685	1.7336
O	5.3626	-3.3607	0.0516
C	3.8294	-0.6268	3.3762
H	4.7432	-0.6862	2.7978
C	3.1173	-1.7998	3.6657
C	3.6358	-3.1349	3.1975
H	4.5740	-3.3061	3.7637
H	2.9362	-3.9519	3.4745
C	2.8034	-2.6681	0.8289
H	3.1350	-2.6285	-0.2296
H	2.5425	-1.6215	1.0901
C	5.0694	-3.6189	1.2085
C	6.0382	-4.4250	1.9941
C	7.4129	-4.1515	1.8986
H	7.7543	-3.3250	1.2860
C	8.3451	-4.9309	2.6028
C	9.7181	-4.6468	2.5271
H	10.0800	-3.8233	1.9237
C	10.6359	-5.4274	3.2363
H	11.6925	-5.2036	3.1776
C	10.1936	-6.4959	4.0199
H	10.9093	-7.0969	4.5655
C	8.8297	-6.7908	4.1014
H	8.5048	-7.6246	4.7142
C	7.8973	-6.0122	3.3993
C	6.5270	-6.2954	3.4761
H	6.1664	-7.1230	4.0747
C	5.6069	-5.5094	2.7789
H	4.5561	-5.7517	2.8507
