199

C	-3.8610	0.5681	3.0508
C	-3.3131	-0.6157	3.5777
H	-3.8447	-1.5512	3.4609
C	-7.5194	2.4323	1.3411
H	-7.1151	3.4616	1.4514
H	-7.7089	2.0247	2.3545
C	-5.1794	0.5417	2.3162
C	-6.5384	1.5398	0.5639
C	-8.8637	2.4639	0.5778
H	-9.5449	3.1928	1.0678
H	-9.3417	1.4620	0.6457
N	-5.1911	1.4230	1.1128
H	-5.9217	0.9126	3.0503
H	-5.4949	-0.4958	2.0725
H	-6.9864	0.5212	0.4530
C	-4.1683	-0.5052	-0.1716
H	-3.5563	-0.7772	-1.0452
H	-5.1434	-1.0313	-0.2518
H	-3.6187	-0.8765	0.7062
C	0.8229	-5.0129	0.8911
C	0.5271	-5.1091	-0.4767
H	-0.4031	-5.5644	-0.7968
C	-0.3862	-6.4490	4.9347
H	0.5407	-6.0609	5.4114
H	-0.1074	-7.2988	4.2796
C	-0.1294	-5.5776	1.9141
C	-1.0940	-5.3453	4.1306
C	-1.3634	-6.9739	6.0112
H	-0.8287	-7.6868	6.6747
H	-2.1844	-7.5341	5.5117
N	-0.3119	-4.6847	3.0916
H	0.3373	-6.5275	2.2452
H	-1.1024	-5.8660	1.4595
H	-2.0261	-5.7726	3.6866
C	-2.6146	-0.5613	-4.1688
C	-3.6053	0.1409	-3.4661
H	-4.4900	-0.3827	-3.1255
C	-1.9553	-4.2412	-6.5599
H	-1.0724	-3.8534	-7.1156
H	-2.8430	-3.6551	-6.8746
C	-2.7726	-2.0504	-4.3708
C	-1.7350	-4.1293	-5.0439
C	-2.1961	-5.7258	-6.9120
H	-2.2464	-5.8374	-8.0161
H	-3.1795	-6.0420	-6.4987
N	-1.4822	-2.7800	-4.5387
H	-3.3890	-2.1565	-5.2871
H	-3.3803	-2.4963	-3.5539
H	-2.6189	-4.5666	-4.5143
C	-3.4495	1.5044	-3.1769
C	-2.3421	2.1912	-3.6989
H	-2.2587	3.2597	-3.5456
C	-7.5905	2.0293	-1.6183
H	-7.8969	0.9642	-1.7196
H	-7.4390	2.4418	-2.6366
C	-4.4648	2.2618	-2.3537
C	-6.3040	2.1469	-0.7887
C	-8.7016	2.8393	-0.9146
H	-9.6654	2.6725	-1.4408
H	-8.4623	3.9229	-0.9882
N	-5.1432	1.4298	-1.3184
H	-5.2139	2.6364	-3.0835
H	-4.0101	3.1691	-1.8988
H	-6.0510	3.2298	-0.6632
C	-2.9771	1.6873	0.0286
H	-3.0714	2.7819	0.1860
H	-2.3458	1.4838	-0.8555
H	-2.4102	1.2614	0.8764
C	3.3525	3.8898	-0.8003
C	3.1173	4.1222	0.5648
H	2.4734	4.9376	0.8696
C	3.1182	5.7127	-4.8366
H	3.7657	4.9288	-5.2863
H	3.7396	6.3221	-4.1497
C	2.7687	4.8249	-1.8283
C	1.9301	5.0788	-4.0907
C	2.5642	6.6469	-5.9369
H	3.4069	7.0215	-6.5561
H	2.0846	7.5275	-5.4551
N	2.2563	4.1231	-3.0368
H	3.6114	5.4865	-2.1153
H	2.0041	5.5016	-1.3889
H	1.2910	5.8951	-3.6698
C	-1.9936	1.8329	3.9755
C	-3.2166	1.7899	3.2921
H	-3.6529	2.7091	2.9184
C	0.3817	4.4772	6.5712
H	0.9218	3.6739	7.1192
H	-0.6961	4.4019	6.8267
C	-1.3174	3.1693	4.1653
C	0.5905	4.3363	5.0579
C	0.9024	5.8639	7.0081
H	0.8621	5.9376	8.1164
H	0.2319	6.6494	6.5955
N	0.1373	3.0720	4.4743
H	-1.8581	3.6499	5.0090
H	-1.5002	3.8308	3.2921
H	0.0854	5.1919	4.5417
C	4.8748	2.0758	-0.2126
C	4.2530	2.8816	-1.1797
H	4.4818	2.7386	-2.2292
C	8.2275	-0.7902	0.4429
H	8.1245	-0.7474	1.5491
H	8.6061	0.1913	0.0922
C	5.9085	1.0593	-0.6262
C	6.8804	-1.1267	-0.2196
C	9.2547	-1.8735	0.0409
H	10.1985	-1.7097	0.6049
H	9.4887	-1.7664	-1.0409
N	5.7605	-0.2419	0.0819
H	6.8813	1.5160	-0.3533
H	5.9410	0.9282	-1.7298
H	7.0317	-1.1786	-1.3264
C	-1.3542	1.5111	-4.4252
C	-1.5355	0.1495	-4.7127
H	-0.8167	-0.3628	-5.3413
C	0.4422	5.1913	-6.0584
H	-0.2196	5.9097	-5.5266
H	-0.1807	4.6125	-6.7700
C	-0.1337	2.2112	-4.9742
C	1.1396	4.2562	-5.0619
C	1.5267	5.9533	-6.8520
H	1.0409	6.7159	-7.4983
H	2.0574	5.2384	-7.5188
N	0.2485	3.4447	-4.2287
H	-0.3958	2.4656	-6.0237
H	0.7224	1.5077	-5.0544
H	1.8408	3.5879	-5.6227
C	1.4337	-4.6379	-1.4380
C	2.6654	-4.0989	-1.0196
H	3.4049	-3.8239	-1.7581
C	-0.7885	-6.4024	-4.8623
H	-1.6465	-6.7239	-4.2315
H	0.0940	-7.0124	-4.5808
C	1.1600	-4.8420	-2.9094
C	-0.5046	-4.9019	-4.6737
C	-1.0956	-6.6598	-6.3541
H	-1.4120	-7.7174	-6.4859
H	-0.1664	-6.5123	-6.9470
N	-0.2263	-4.4642	-3.3087
H	1.3111	-5.9272	-3.0794
H	1.9220	-4.3371	-3.5438
H	0.3427	-4.6056	-5.3408
C	2.9629	-3.9708	0.3477
C	2.0556	-4.4787	1.2904
H	2.3041	-4.4445	2.3457
C	7.3246	-3.5569	-0.2437
H	7.3305	-3.5533	-1.3550
H	6.9730	-4.5537	0.0966
C	4.2793	-3.4252	0.8538
C	6.4085	-2.4517	0.2971
C	8.7506	-3.3150	0.2992
H	9.4487	-4.0382	-0.1725
H	8.7597	-3.5067	1.3953
N	5.0019	-2.5433	-0.1085
H	4.8934	-4.3249	1.0789
H	4.1429	-2.9188	1.8333
H	6.4788	-2.4424	1.4152
C	-2.1020	-0.5843	4.2911
C	-1.4805	0.6521	4.5259
H	-0.5983	0.6916	5.1532
C	-2.5367	-4.6779	6.0214
H	-3.4387	-5.0041	5.4576
H	-2.8337	-3.8479	6.6961
C	-1.4858	-1.8202	4.9066
C	-1.4341	-4.2190	5.0597
C	-1.9852	-5.8444	6.8708
H	-2.8056	-6.2657	7.4914
H	-1.2090	-5.4534	7.5638
N	-1.7831	-3.0908	4.1881
H	-1.8992	-1.8660	5.9374
H	-0.3889	-1.6875	5.0336
H	-0.5218	-3.9658	5.6586
C	3.7196	3.3136	1.5421
C	4.6194	2.3134	1.1459
H	5.1359	1.7248	1.8957
C	2.5606	5.8207	5.0319
H	2.0178	6.5584	4.4014
H	3.6436	5.9089	4.8129
C	3.5385	3.6105	3.0098
C	2.0569	4.3917	4.7598
C	2.3486	6.1386	6.5306
H	2.6001	7.2046	6.7171
H	3.0476	5.5198	7.1335
N	2.1321	3.9247	3.3789
H	4.1744	4.4992	3.1963
H	3.9602	2.8044	3.6493
H	2.6095	3.6832	5.4259
C	-4.3718	1.0226	-0.0867
H	2.9609	3.4866	-3.3811
H	-0.5818	3.9747	-4.0057
H	0.5910	-4.4397	3.4721
H	-2.7661	-3.1265	3.9591
H	0.2930	2.3205	5.1309
H	1.7768	4.6472	2.7691
H	-0.8969	-2.2831	-5.1949
H	-0.8882	-4.9015	-2.6836
H	5.7319	-0.0820	1.0787
H	4.9390	-2.9350	-1.0374
