304

O	-2.9705	0.1378	-4.5619
C	-2.3433	1.2305	-3.8831
H	-1.9714	0.9445	-2.8675
H	-1.4473	1.5296	-4.4607
O	-3.2341	2.3477	-3.8398
C	-3.8680	2.5228	-2.6010
C	-4.9514	1.6997	-2.2195
C	-5.4960	1.8525	-0.9306
H	-6.2529	1.1693	-0.5822
C	-5.0705	2.8858	-0.0804
C	-3.9884	3.6981	-0.4784
C	-3.4002	3.5203	-1.7390
O	-2.2357	4.2187	-2.0723
C	-2.4637	5.5643	-2.4872
H	-3.0778	5.5812	-3.4151
H	-2.9995	6.1322	-1.6961
C	-1.1188	6.2442	-2.7434
H	-1.3027	7.3162	-2.9753
H	-0.5246	6.2141	-1.8027
C	-0.3504	5.5974	-3.9179
H	-0.8831	4.7046	-4.3161
H	-0.2838	6.3289	-4.7526
C	1.0683	5.1768	-3.5280
H	1.5998	4.8574	-4.4510
H	1.6114	6.0454	-3.0927
O	1.0143	4.1042	-2.5834
C	-5.4472	0.6205	-3.1698
H	-5.2612	0.9795	-4.2056
C	-6.9863	0.4202	-3.1362
H	-7.3320	0.1008	-2.1343
H	-7.4713	1.3971	-3.3545
C	-7.4675	-0.6116	-4.1710
H	-7.0656	-0.3393	-5.1710
H	-7.0745	-1.6186	-3.9163
C	-8.9744	-0.6825	-4.2091
C	-9.6968	-1.0923	-3.0744
H	-9.1822	-1.3633	-2.1604
C	-11.0918	-1.1729	-3.1164
H	-11.6407	-1.4902	-2.2394
C	-11.7756	-0.8578	-4.2934
H	-12.8545	-0.9297	-4.3268
C	-11.0654	-0.4573	-5.4276
H	-11.5967	-0.2186	-6.3402
C	-9.6712	-0.3671	-5.3875
H	-9.1376	-0.0560	-6.2774
C	-5.7027	3.0896	1.2868
H	-5.5393	4.1458	1.5869
C	-7.2506	2.9489	1.3212
H	-7.5712	1.9131	1.0921
H	-7.6062	3.1693	2.3512
C	-7.9706	3.8883	0.3326
H	-7.7128	3.5975	-0.7086
H	-9.0684	3.7493	0.4328
C	-7.6400	5.3402	0.5736
C	-8.1229	5.9961	1.7179
H	-8.7557	5.4722	2.4228
C	-7.7860	7.3312	1.9585
H	-8.1599	7.8312	2.8427
C	-6.9629	8.0195	1.0630
H	-6.6996	9.0520	1.2544
C	-6.4803	7.3750	-0.0794
H	-5.8386	7.9067	-0.7699
C	-6.8203	6.0418	-0.3275
H	-6.4277	5.5531	-1.2112
O	-3.4594	4.6608	0.3913
C	-2.6244	4.1220	1.4188
H	-2.1653	3.1449	1.1244
H	-1.7841	4.8256	1.5773
O	-3.3573	4.0328	2.6432
C	-3.8205	2.7438	2.9402
C	-4.9717	2.2308	2.3045
C	-5.3356	0.8909	2.5334
H	-6.1480	0.4618	1.9703
C	-4.6339	0.0945	3.4583
C	-3.4888	0.6305	4.0880
C	-3.0929	1.9485	3.8355
O	-1.8588	2.3930	4.3211
C	-1.9513	3.3222	5.3996
H	-2.5551	4.2074	5.1045
H	-2.4310	2.8407	6.2814
C	-0.5451	3.7959	5.7678
H	-0.0933	4.2756	4.8708
H	-0.6258	4.5821	6.5498
C	0.3373	2.6426	6.2959
H	0.5146	2.7939	7.3839
H	-0.1659	1.6564	6.1878
C	1.6900	2.5715	5.5870
H	2.2046	3.5568	5.6560
H	2.3122	1.8127	6.1082
O	1.4996	2.2121	4.2159
O	-2.7143	-0.1531	4.9546
C	-1.8252	-1.0515	4.2858
H	-1.5754	-0.7112	3.2502
H	-0.8679	-1.0612	4.8423
O	-2.3692	-2.3748	4.3077
C	-5.0105	-1.3586	3.7034
H	-4.6902	-1.6151	4.7372
C	-6.5407	-1.6209	3.7279
H	-7.0128	-0.9161	4.4470
H	-7.0017	-1.4202	2.7416
C	-6.8740	-3.0576	4.1698
H	-6.2479	-3.7956	3.6254
H	-6.6372	-3.1635	5.2513
C	-8.3209	-3.3850	3.9075
C	-8.7704	-3.5873	2.5897
H	-8.0838	-3.4990	1.7575
C	-10.1077	-3.9091	2.3421
H	-10.4481	-4.0601	1.3264
C	-11.0050	-4.0361	3.4055
H	-12.0403	-4.2878	3.2123
C	-10.5662	-3.8421	4.7186
H	-11.2626	-3.9412	5.5408
C	-9.2292	-3.5182	4.9712
H	-8.9051	-3.3699	5.9934
C	-2.9736	-2.7571	3.1011
C	-4.2368	-2.2430	2.7339
C	-4.7471	-2.5402	1.4588
H	-5.6752	-2.0983	1.1364
C	-4.0660	-3.4062	0.5899
C	-2.7910	-3.8879	0.9573
C	2.2762	3.6119	-2.2309
O	-2.0089	-4.6135	0.0460
C	-1.4547	-3.8130	-1.0063
H	-1.3788	-2.7345	-0.7202
H	-0.4149	-4.1466	-1.1812
O	-2.1954	-4.0047	-2.2190
C	2.6969	2.0264	3.5143
C	-3.4531	-0.8572	-3.7006
C	-4.6341	-0.6464	-2.9548
C	-4.9972	-1.5839	-1.9753
H	-5.8523	-1.3862	-1.3497
C	-4.2533	-2.7611	-1.7882
C	-3.0617	-2.9440	-2.5212
C	-4.6591	-3.7932	-0.7512
H	-4.2108	-4.7696	-1.0396
C	-6.1792	-4.0997	-0.6944
H	-6.3631	-4.7715	0.1721
H	-6.7824	-3.1854	-0.5255
C	-6.6721	-4.7996	-1.9717
H	-6.3834	-4.1935	-2.8577
H	-6.1781	-5.7901	-2.0702
C	-8.1662	-5.0025	-1.9458
C	-8.7569	-5.8274	-0.9723
H	-8.1461	-6.3267	-0.2311
C	-10.1421	-6.0154	-0.9519
H	-10.5902	-6.6457	-0.1950
C	-10.9474	-5.3928	-1.9077
H	-12.0189	-5.5402	-1.8907
C	-10.3689	-4.5865	-2.8905
H	-10.9924	-4.1133	-3.6371
C	-8.9836	-4.3912	-2.9126
H	-8.5523	-3.7654	-3.6828
O	2.9699	-0.1371	4.5622
C	2.3434	-1.2305	3.8831
H	1.4465	-1.5286	4.4600
H	1.9714	-0.9445	2.8674
O	3.2342	-2.3476	3.8398
C	3.8681	-2.5228	2.6010
C	4.9500	-1.6998	2.2196
C	5.4960	-1.8525	0.9306
H	6.2530	-1.1693	0.5822
C	5.0706	-2.8857	0.0804
C	3.9884	-3.6981	0.4784
C	3.4002	-3.5202	1.7390
O	2.2357	-4.2187	2.0723
C	2.4630	-5.5649	2.4871
H	2.9988	-6.1326	1.6950
H	3.0779	-5.5825	3.4146
C	1.1189	-6.2442	2.7434
H	0.5246	-6.2141	1.8027
H	1.3021	-7.3169	2.9751
C	0.3505	-5.5974	3.9179
H	0.2845	-6.3295	4.7523
H	0.8839	-4.7052	4.3158
C	-1.0683	-5.1768	3.5280
H	-1.6112	-6.0457	3.0937
H	-1.5998	-4.8574	4.4510
O	-1.0143	-4.1042	2.5834
C	5.4473	-0.6205	3.1698
H	5.2612	-0.9794	4.2056
C	6.9863	-0.4202	3.1362
H	7.4706	-1.3978	3.3543
H	7.3321	-0.1008	2.1343
C	7.4676	0.6116	4.1710
H	7.0739	1.6179	3.9161
H	7.0664	0.3383	5.1716
C	8.9744	0.6825	4.2091
C	9.6969	1.0924	3.0744
H	9.1823	1.3634	2.1604
C	11.0918	1.1729	3.1164
H	11.6408	1.4902	2.2394
C	11.7756	0.8582	4.2924
H	12.8546	0.9297	4.3268
C	11.0662	0.4567	5.4273
H	11.5967	0.2186	6.3402
C	9.6707	0.3661	5.3882
H	9.1376	0.0560	6.2774
C	5.7027	-3.0896	-1.2868
H	5.5387	-4.1455	-1.5857
C	7.2508	-2.9492	-1.3202
H	7.6063	-3.1693	-2.3512
H	7.5713	-1.9134	-1.0912
C	7.9708	-3.8887	-0.3317
H	9.0684	-3.7493	-0.4328
H	7.7129	-3.5975	0.7086
C	7.6401	-5.3406	-0.5727
C	8.1231	-5.9965	-1.7170
H	8.7564	-5.4715	-2.4226
C	7.7860	-7.3312	-1.9585
H	8.1599	-7.8312	-2.8428
C	6.9629	-8.0195	-1.0630
H	6.6997	-9.0520	-1.2544
C	6.4804	-7.3750	0.0794
H	5.8394	-7.9073	0.7695
C	6.8205	-6.0421	0.3285
H	6.4278	-5.5531	1.2112
O	3.4602	-4.6614	-0.3916
C	2.6244	-4.1220	-1.4188
H	1.7842	-4.8256	-1.5773
H	2.1647	-3.1456	-1.1246
O	3.3574	-4.0328	-2.6432
C	3.8206	-2.7437	-2.9402
C	4.9718	-2.2308	-2.3045
C	5.3357	-0.8909	-2.5334
H	6.1480	-0.4618	-1.9703
C	4.6339	-0.0945	-3.4583
C	3.4889	-0.6305	-4.0880
C	3.0929	-1.9485	-3.8355
O	1.8590	-2.3933	-4.3202
C	1.9507	-3.3215	-5.3993
H	2.4304	-2.8400	-6.2811
H	2.5552	-4.2074	-5.1045
C	0.5457	-3.7949	-5.7686
H	0.6264	-4.5811	-6.5506
H	0.0939	-4.2746	-4.8716
C	-0.3374	-2.6423	-6.2968
H	0.1666	-1.6556	-6.1877
H	-0.5139	-2.7928	-7.3847
C	-1.6899	-2.5715	-5.5870
H	-2.3130	-1.8118	-6.1088
H	-2.2040	-3.5558	-5.6567
O	-1.4995	-2.2120	-4.2159
O	2.7145	0.1527	-4.9537
C	1.8252	1.0515	-4.2858
H	0.8680	1.0612	-4.8423
H	1.5755	0.7112	-3.2502
O	2.3693	2.3748	-4.3077
C	5.0105	1.3586	-3.7034
H	4.6902	1.6138	-4.7376
C	6.5401	1.6202	-3.7280
H	7.0018	1.4202	-2.7416
H	7.0137	0.9151	-4.4463
C	6.8734	3.0569	-4.1699
H	6.6365	3.1628	-5.2515
H	6.2479	3.7957	-3.6254
C	8.3209	3.3850	-3.9075
C	8.7704	3.5876	-2.5906
H	8.0831	3.4984	-1.7576
C	10.1078	3.9091	-2.3421
H	10.4481	4.0601	-1.3264
C	11.0049	4.0378	-3.4060
H	12.0402	4.2881	-3.2133
C	10.5662	3.8421	-4.7186
H	11.2625	3.9428	-5.5413
C	9.2292	3.5183	-4.9712
H	8.9050	3.3702	-5.9944
C	2.9736	2.7571	-3.1011
C	4.2367	2.2434	-2.7348
C	4.7464	2.5395	-1.4589
H	5.6760	2.0977	-1.1367
C	4.0660	3.4062	-0.5899
C	2.7917	3.8873	-0.9577
C	-2.2769	-3.6125	2.2307
O	2.0089	4.6135	-0.0460
C	1.4547	3.8130	1.0063
H	0.4150	4.1466	1.1812
H	1.3788	2.7346	0.7202
O	2.1955	4.0047	2.2190
C	-2.6976	-2.0258	-3.5140
C	3.4538	0.8566	3.7002
C	4.6343	0.6461	2.9558
C	4.9973	1.5839	1.9753
H	5.8523	1.3862	1.3497
C	4.2533	2.7611	1.7882
C	3.0617	2.9440	2.5212
C	4.6591	3.7932	0.7512
H	4.2108	4.7696	1.0396
C	6.1792	4.0997	0.6944
H	6.7831	3.1861	0.5257
H	6.3632	4.7715	-0.1721
C	6.6720	4.7999	1.9708
H	6.1780	5.7905	2.0692
H	6.3827	4.1942	2.8580
C	8.1663	5.0025	1.9458
C	8.7562	5.8280	0.9726
H	8.1454	6.3277	0.2305
C	10.1420	6.0158	0.9510
H	10.5895	6.6467	0.1944
C	10.9475	5.3928	1.9077
H	12.0197	5.5409	1.8909
C	10.3682	4.5872	2.8908
H	10.9924	4.1133	3.6371
C	8.9842	4.3922	2.9118
H	8.5524	3.7654	3.6828
