304

O	3.0088	-0.0330	-4.5387
C	2.3657	1.0823	-3.9136
H	1.9875	0.8373	-2.8895
H	1.4720	1.3473	-4.5111
O	3.2457	2.2087	-3.9118
C	3.8672	2.4438	-2.6766
C	4.9547	1.6486	-2.2505
C	5.4866	1.8626	-0.9651
H	6.2467	1.2026	-0.5808
C	5.0443	2.9279	-0.1644
C	3.9582	3.7117	-0.6065
C	3.3827	3.4734	-1.8629
O	2.2147	4.1455	-2.2361
C	2.4339	5.4737	-2.7076
H	3.0560	5.4561	-3.6302
H	2.9577	6.0808	-1.9376
C	1.0852	6.1289	-3.0044
H	1.2612	7.1915	-3.2814
H	0.4831	6.1342	-2.0682
C	0.3330	5.4242	-4.1558
H	0.8774	4.5200	-4.5101
H	0.2669	6.1179	-5.0222
C	-1.0851	5.0075	-3.7597
H	-1.6056	4.6430	-4.6723
H	-1.6399	5.8890	-3.3673
O	-1.0295	3.9777	-2.7687
C	5.4687	0.5337	-3.1485
H	5.2884	0.8453	-4.2006
C	7.0092	0.3498	-3.0935
H	7.3491	0.0777	-2.0758
H	7.4870	1.3208	-3.3502
C	7.5089	-0.7215	-4.0781
H	7.1132	-0.4969	-5.0924
H	7.1229	-1.7202	-3.7829
C	9.0166	-0.7796	-4.1006
C	9.7329	-1.1326	-2.9431
H	9.2128	-1.3684	-2.0224
C	11.1288	-1.2015	-2.9700
H	11.6730	-1.4750	-2.0754
C	11.8200	-0.9316	-4.1538
H	12.8998	-0.9945	-4.1752
C	11.1160	-0.5878	-5.3103
H	11.6530	-0.3841	-6.2281
C	9.7208	-0.5093	-5.2858
H	9.1921	-0.2424	-6.1929
C	5.6626	3.1973	1.1978
H	5.4869	4.2639	1.4501
C	7.2114	3.0730	1.2511
H	7.5434	2.0313	1.0702
H	7.5560	3.3416	2.2735
C	7.9313	3.9753	0.2285
H	7.6853	3.6368	-0.8011
H	9.0294	3.8513	0.3437
C	7.5852	5.4331	0.4030
C	8.0521	6.1429	1.5215
H	8.6835	5.6563	2.2538
C	7.7009	7.4839	1.7007
H	8.0624	8.0255	2.5653
C	6.8793	8.1246	0.7691
H	6.6049	9.1618	0.9131
C	6.4126	7.4262	-0.3480
H	5.7721	7.9211	-1.0663
C	6.7670	6.0867	-0.5347
H	6.3867	5.5562	-1.3994
O	3.4128	4.7064	0.2159
C	2.5739	4.2050	1.2590
H	2.1264	3.2115	1.0038
H	1.7258	4.9067	1.3796
O	3.2969	4.1763	2.4922
C	3.7694	2.9059	2.8491
C	4.9308	2.3767	2.2459
C	5.3049	1.0516	2.5362
H	6.1261	0.6062	1.9992
C	4.6025	0.2897	3.4892
C	3.4471	0.8417	4.0853
C	3.0413	2.1436	3.7722
O	1.7990	2.5969	4.2276
C	1.8736	3.5731	5.2652
H	2.4718	4.4504	4.9367
H	2.3500	3.1352	6.1712
C	0.4599	4.0490	5.6007
H	0.0115	4.4848	4.6798
H	0.5266	4.8693	6.3482
C	-0.4164	2.9115	6.1713
H	-0.6045	3.1084	7.2502
H	0.0967	1.9263	6.1106
C	-1.7622	2.7966	5.4551
H	-2.2864	3.7790	5.4766
H	-2.3819	2.0553	6.0037
O	-1.5565	2.3795	4.1026
O	2.6724	0.0893	4.9789
C	1.7974	-0.8459	4.3427
H	1.5535	-0.5535	3.2912
H	0.8354	-0.8405	4.8911
O	2.3534	-2.1618	4.4269
C	4.9903	-1.1477	3.8007
H	4.6634	-1.3619	4.8420
C	6.5227	-1.3940	3.8494
H	6.9820	-0.6540	4.5408
H	6.9903	-1.2322	2.8591
C	6.8653	-2.8068	4.3564
H	6.2507	-3.5739	3.8396
H	6.6200	-2.8676	5.4395
C	8.3173	-3.1314	4.1207
C	8.7802	-3.3868	2.8168
H	8.1000	-3.3415	1.9758
C	10.1225	-3.7063	2.5946
H	10.4730	-3.8981	1.5893
C	11.0116	-3.7782	3.6699
H	12.0508	-4.0281	3.4965
C	10.5596	-3.5312	4.9696
H	11.2497	-3.5876	5.8011
C	9.2175	-3.2095	5.1967
H	8.8831	-3.0198	6.2088
C	2.9717	-2.5905	3.2432
C	4.2333	-2.0809	2.8644
C	4.7574	-2.4286	1.6078
H	5.6842	-1.9923	1.2741
C	4.0919	-3.3382	0.7719
C	2.8182	-3.8156	1.1495
C	-2.2898	3.4891	-2.4054
O	2.0508	-4.5877	0.2643
C	1.4984	-3.8392	-0.8265
H	1.4101	-2.7500	-0.5885
H	0.4633	-4.1901	-0.9954
O	2.2514	-4.0765	-2.0235
C	-2.7459	2.1519	3.3999
C	3.4929	-0.9848	-3.6307
C	4.6654	-0.7304	-2.8852
C	5.0286	-1.6207	-1.8627
H	5.8763	-1.3877	-1.2392
C	4.2939	-2.7957	-1.6304
C	3.1105	-3.0217	-2.3646
C	4.7001	-3.7776	-0.5459
H	4.2634	-4.7699	-0.7951
C	6.2224	-4.0668	-0.4632
H	6.4050	-4.6983	0.4333
H	6.8157	-3.1403	-0.3294
C	6.7329	-4.8170	-1.7045
H	6.4463	-4.2530	-2.6186
H	6.2489	-5.8155	-1.7637
C	8.2285	-5.0043	-1.6574
C	8.8183	-5.7802	-0.6438
H	8.2057	-6.2525	0.1133
C	10.2049	-5.9539	-0.6038
H	10.6522	-6.5462	0.1837
C	11.0128	-5.3659	-1.5791
H	12.0854	-5.5021	-1.5469
C	10.4354	-4.6089	-2.6011
H	11.0610	-4.1627	-3.3624
C	9.0487	-4.4279	-2.6432
H	8.6183	-3.8405	-3.4436
O	-3.0081	0.0337	4.5390
C	-2.3657	-1.0823	3.9136
H	-1.4712	-1.3463	4.5104
H	-1.9876	-0.8373	2.8895
O	-3.2458	-2.2087	3.9118
C	-3.8672	-2.4438	2.6766
C	-4.9533	-1.6486	2.2506
C	-5.4867	-1.8626	0.9651
H	-6.2468	-1.2026	0.5808
C	-5.0443	-2.9279	0.1644
C	-3.9583	-3.7117	0.6065
C	-3.3827	-3.4734	1.8629
O	-2.2148	-4.1454	2.2361
C	-2.4333	-5.4744	2.7075
H	-2.9569	-6.0812	1.9365
H	-3.0560	-5.4574	3.6297
C	-1.0852	-6.1289	3.0044
H	-0.4831	-6.1342	2.0682
H	-1.2606	-7.1922	3.2812
C	-0.3331	-5.4242	4.1558
H	-0.2677	-6.1185	5.0219
H	-0.8781	-4.5206	4.5099
C	1.0851	-5.0075	3.7597
H	1.6397	-5.8893	3.3683
H	1.6056	-4.6430	4.6722
O	1.0295	-3.9777	2.7687
C	-5.4687	-0.5337	3.1485
H	-5.2884	-0.8453	4.2006
C	-7.0092	-0.3497	3.0935
H	-7.4864	-1.3215	3.3501
H	-7.3492	-0.0777	2.0757
C	-7.5089	0.7215	4.0781
H	-7.1223	1.7195	3.7828
H	-7.1140	0.4960	5.0930
C	-9.0167	0.7796	4.1006
C	-9.7329	1.1326	2.9431
H	-9.2129	1.3684	2.0224
C	-11.1289	1.2015	2.9699
H	-11.6731	1.4750	2.0754
C	-11.8199	0.9319	4.1529
H	-12.8998	0.9945	4.1752
C	-11.1168	0.5872	5.3100
H	-11.6530	0.3841	6.2281
C	-9.7202	0.5083	5.2866
H	-9.1921	0.2424	6.1929
C	-5.6626	-3.1973	-1.1978
H	-5.4864	-4.2635	-1.4489
C	-7.2115	-3.0733	-1.2502
H	-7.5560	-3.3416	-2.2735
H	-7.5436	-2.0316	-1.0693
C	-7.9315	-3.9755	-0.2276
H	-9.0294	-3.8512	-0.3437
H	-7.6853	-3.6368	0.8011
C	-7.5854	-5.4333	-0.4021
C	-8.0523	-6.1431	-1.5206
H	-8.6843	-5.6555	-2.2537
C	-7.7009	-7.4839	-1.7007
H	-8.0625	-8.0255	-2.5653
C	-6.8793	-8.1246	-0.7691
H	-6.6049	-9.1618	-0.9131
C	-6.4127	-7.4262	0.3480
H	-5.7729	-7.9217	1.0660
C	-6.7672	-6.0870	0.5357
H	-6.3868	-5.5562	1.3994
O	-3.4136	-4.7070	-0.2162
C	-2.5739	-4.2049	-1.2590
H	-1.7259	-4.9066	-1.3796
H	-2.1258	-3.2122	-1.0039
O	-3.2970	-4.1763	-2.4922
C	-3.7694	-2.9059	-2.8491
C	-4.9308	-2.3767	-2.2459
C	-5.3050	-1.0516	-2.5362
H	-6.1261	-0.6061	-1.9992
C	-4.6025	-0.2897	-3.4892
C	-3.4472	-0.8417	-4.0853
C	-3.0413	-2.1436	-3.7722
O	-1.7992	-2.5972	-4.2267
C	-1.8729	-3.5725	-5.2649
H	-2.3494	-3.1346	-6.1709
H	-2.4718	-4.4504	-4.9367
C	-0.4605	-4.0480	-5.6015
H	-0.5272	-4.8683	-6.3490
H	-0.0122	-4.4838	-4.6807
C	0.4165	-2.9112	-6.1723
H	-0.0975	-1.9256	-6.1105
H	0.6039	-3.1073	-7.2510
C	1.7621	-2.7965	-5.4551
H	2.3827	-2.0544	-6.0043
H	2.2858	-3.7780	-5.4774
O	1.5565	-2.3795	-4.1026
O	-2.6725	-0.0896	-4.9780
C	-1.7974	0.8460	-4.3427
H	-0.8355	0.8405	-4.8911
H	-1.5536	0.5535	-3.2912
O	-2.3534	2.1618	-4.4269
C	-4.9904	1.1477	-3.8007
H	-4.6634	1.3605	-4.8424
C	-6.5220	1.3933	-3.8495
H	-6.9904	1.2322	-2.8591
H	-6.9828	0.6531	-4.5402
C	-6.8646	2.8061	-4.3565
H	-6.6194	2.8669	-5.4396
H	-6.2508	3.5739	-3.8396
C	-8.3173	3.1314	-4.1207
C	-8.7801	3.3871	-2.8177
H	-8.0993	3.3408	-1.9759
C	-10.1225	3.7063	-2.5946
H	-10.4731	3.8981	-1.5893
C	-11.0115	3.7798	-3.6705
H	-12.0507	4.0284	-3.4975
C	-10.5596	3.5312	-4.9696
H	-11.2496	3.5893	-5.8016
C	-9.2176	3.2095	-5.1967
H	-8.8831	3.0201	-6.2097
C	-2.9717	2.5906	-3.2432
C	-4.2332	2.0812	-2.8654
C	-4.7567	2.4279	-1.6079
H	-5.6849	1.9917	-1.2744
C	-4.0919	3.3382	-0.7719
C	-2.8189	3.8149	-1.1498
C	2.2905	-3.4898	2.4053
O	-2.0508	4.5877	-0.2643
C	-1.4985	3.8392	0.8265
H	-0.4634	4.1901	0.9954
H	-1.4102	2.7500	0.5885
O	-2.2515	4.0765	2.0235
C	2.7466	-2.1513	-3.3996
C	-3.4937	0.9842	3.6305
C	-4.6656	0.7301	2.8861
C	-5.0286	1.6207	1.8626
H	-5.8764	1.3877	1.2391
C	-4.2940	2.7957	1.6304
C	-3.1105	3.0217	2.3646
C	-4.7002	3.7776	0.5459
H	-4.2634	4.7699	0.7951
C	-6.2225	4.0668	0.4632
H	-6.8165	3.1410	0.3296
H	-6.4050	4.6983	-0.4333
C	-6.7328	4.8173	1.7036
H	-6.2488	5.8158	1.7628
H	-6.4457	4.2536	2.6188
C	-8.2286	5.0043	1.6574
C	-8.8176	5.7809	0.6441
H	-8.2049	6.2535	-0.1140
C	-10.2048	5.9542	0.6028
H	-10.6514	6.5472	-0.1843
C	-11.0128	5.3659	1.5791
H	-12.0861	5.5028	1.5470
C	-10.4348	4.6095	2.6014
H	-11.0611	4.1627	3.3624
C	-9.0493	4.4289	2.6423
H	-8.6184	3.8405	3.4436
