102

C	-2.8354	-1.5716	4.4564
C	-3.5605	-1.3358	3.1478
C	-4.0632	-0.0555	2.8349
C	-4.6659	0.1826	1.5818
C	-4.8264	-0.8810	0.6698
C	-4.3259	-2.1630	0.9773
C	-3.7278	-2.3956	2.2327
C	-3.2941	-3.7983	2.6139
N	-1.9313	-4.2370	2.3031
C	-4.4227	-3.2805	-0.0404
C	-5.5815	-0.6606	-0.6274
N	-4.8480	-0.2464	-1.8252
C	-5.1312	1.5757	1.2124
C	-4.0002	1.0569	3.8656
N	-2.8361	1.9478	3.8987
C	5.4221	0.6118	0.7040
C	4.8053	0.8712	-0.6553
C	4.3463	2.1628	-0.9887
C	3.7002	2.3902	-2.2217
C	3.5827	1.3375	-3.1529
C	4.0398	0.0438	-2.8249
C	4.6840	-0.1781	-1.5898
C	5.2926	-1.5355	-1.2864
N	4.4839	-2.5552	-0.6127
C	3.8304	-1.1027	-3.7916
C	3.0049	1.6087	-4.5308
N	1.5636	1.4568	-4.7518
C	3.1259	3.7550	-2.5405
C	4.5888	3.3195	-0.0368
N	3.5870	3.6366	0.9852
C	-2.6619	0.9714	-5.2941
C	-3.4232	0.5744	-4.1947
C	-2.8052	0.3513	-2.9509
C	-3.5812	-0.0678	-1.7716
C	-1.4183	0.5337	-2.8394
C	-0.6448	0.9275	-3.9422
C	0.8079	1.0989	-3.7816
C	-1.2826	1.1474	-5.1764
C	2.0417	-5.4793	1.3516
C	2.8840	-4.5677	0.7143
C	2.4189	-3.2792	0.3956
C	3.2755	-2.2925	-0.2809
C	1.1012	-2.9313	0.7296
C	0.2494	-3.8419	1.3720
C	-1.1257	-3.4410	1.7062
C	0.7333	-5.1258	1.6814
C	0.6047	4.5013	3.9381
C	-0.5379	3.7012	3.9723
C	-0.6897	2.6459	3.0545
C	-1.8808	1.7804	3.0627
C	0.3244	2.4162	2.1121
C	1.4774	3.2153	2.0722
C	2.5170	2.9380	1.0669
C	1.6085	4.2662	2.9980
H	-2.0716	-2.3519	4.3573
H	-3.5253	-1.8864	5.2563
H	-2.3236	-0.6658	4.8025
H	-3.4285	-3.9554	3.6958
H	-3.9656	-4.5391	2.1518
H	-5.3603	-3.8507	0.0627
H	-4.3855	-2.8946	-1.0660
H	-3.5943	-3.9916	0.0620
H	-6.3742	0.0900	-0.4806
H	-6.1295	-1.5749	-0.9051
H	-5.0704	1.7474	0.1312
H	-4.5184	2.3470	1.6935
H	-6.1769	1.7502	1.5144
H	-4.8815	1.7105	3.7682
H	-4.0911	0.6361	4.8793
H	4.9979	1.2703	1.4713
H	5.2481	-0.4186	1.0358
H	6.5122	0.7754	0.6963
H	6.2007	-1.4126	-0.6754
H	5.6573	-2.0001	-2.2160
H	2.9211	-0.9638	-4.3887
H	3.7225	-2.0584	-3.2650
H	4.6728	-1.2073	-4.4945
H	3.2567	2.6327	-4.8492
H	3.4977	0.9678	-5.2787
H	2.2491	3.6801	-3.1945
H	3.8607	4.4018	-3.0474
H	2.8028	4.2769	-1.6318
H	4.7481	4.2488	-0.6063
H	5.5382	3.1712	0.5017
H	-3.1495	1.1451	-6.2548
H	-4.5009	0.4296	-4.2722
H	-3.0020	-0.2163	-0.8397
H	-0.9300	0.3646	-1.8748
H	1.2060	0.8982	-2.7682
H	-0.6758	1.4563	-6.0280
H	2.4096	-6.4772	1.5953
H	3.9090	-4.8302	0.4515
H	2.8083	-1.3099	-0.4862
H	0.7316	-1.9312	0.4839
H	-1.4173	-2.4145	1.4114
H	0.0631	-5.8264	2.1800
H	0.7143	5.3182	4.6531
H	-1.3295	3.8728	4.7019
H	-1.8978	0.9780	2.2999
H	0.2145	1.5971	1.3947
H	2.3138	2.0889	0.3861
H	2.5067	4.8828	2.9600
