204

C	-2.0976	-1.5127	-8.0823
C	-3.3932	-1.3288	-7.3212
C	-3.9688	-0.0519	-7.1763
C	-5.1326	0.1238	-6.3993
C	-5.7643	-0.9987	-5.8268
C	-5.1904	-2.2818	-5.9621
C	-4.0287	-2.4463	-6.7415
C	-3.4947	-3.8421	-7.0249
N	-2.3848	-4.2127	-6.1490
C	-5.8147	-3.4713	-5.2618
C	-7.1083	-0.8389	-5.1376
N	-7.1759	-0.5896	-3.6977
C	-5.6886	1.5155	-6.1824
C	-3.3869	1.1319	-7.9319
N	-2.4607	1.9276	-7.1291
C	-2.5247	1.4531	7.9963
C	-3.7704	1.2624	7.1585
C	-4.3348	-0.0158	6.9834
C	-5.4506	-0.1940	6.1397
C	-6.0467	0.9261	5.5273
C	-5.4836	2.2101	5.6912
C	-4.3718	2.3779	6.5386
C	-3.8648	3.7773	6.8522
N	-2.7284	4.1660	6.0207
C	-6.0703	3.3974	4.9562
C	-7.3515	0.7702	4.7673
N	-7.3447	0.5365	3.3243
C	-5.9956	-1.5857	5.8974
C	-3.7922	-1.1999	7.7672
N	-2.8152	-1.9811	7.0115
C	6.0129	5.1720	-3.3156
C	5.3605	5.8658	-2.1371
C	4.2150	6.6635	-2.3233
C	3.5605	7.2455	-1.2175
C	4.0989	7.0792	0.0726
C	5.2441	6.2803	0.2701
C	5.8973	5.7099	-0.8407
C	7.2324	5.0085	-0.6544
N	7.2834	3.5671	-0.4096
C	5.7578	6.0376	1.6731
C	3.4968	7.8353	1.2464
N	2.5224	7.0482	1.9979
C	2.2872	8.0369	-1.4305
C	3.7218	6.9676	-3.7289
N	2.6149	6.1059	-4.1367
C	5.9042	-5.0753	3.5929
C	5.3164	-5.7818	2.3888
C	4.1785	-6.5994	2.5298
C	3.5894	-7.2058	1.4004
C	4.1831	-7.0384	0.1347
C	5.3173	-6.2143	-0.0181
C	5.9081	-5.6239	1.1166
C	7.2378	-4.9007	0.9890
N	7.2796	-3.4550	0.7722
C	5.8875	-5.9718	-1.3996
C	3.6538	-7.8107	-1.0626
N	2.7176	-7.0364	-1.8740
C	2.3228	-8.0201	1.5603
C	3.6207	-6.8926	3.9138
N	2.4858	-6.0378	4.2593
C	-7.4075	0.0773	0.4950
C	-7.3747	-0.1455	-0.8710
C	-6.1443	-0.2645	-1.5529
C	-6.1006	-0.5029	-3.0045
C	-4.9526	-0.1546	-0.8171
C	-4.9860	0.0728	0.5605
C	-6.2116	0.1906	1.2363
C	-6.2365	0.4275	2.6888
C	0.4903	4.3599	-5.1324
C	-0.4875	3.5652	-5.7098
C	-0.2898	2.9991	-6.9879
C	-1.3131	2.1765	-7.6431
C	0.9199	3.2435	-7.6592
C	1.9035	4.0405	-7.0779
C	1.7009	4.6141	-5.8118
C	2.7417	5.4799	-5.2476
C	0.7334	-5.6831	-3.5550
C	-0.2458	-5.1394	-4.3721
C	-1.4265	-5.8608	-4.6525
C	-2.4741	-5.3336	-5.5345
C	-1.5973	-7.1325	-4.0817
C	-0.6128	-7.6795	-3.2623
C	0.5672	-6.9668	-2.9926
C	1.5949	-7.5888	-2.1511
C	-1.8984	7.0921	3.9790
C	-0.8840	7.6477	3.2030
C	0.3166	6.9505	2.9936
C	1.3786	7.5862	2.2077
C	0.4751	5.6718	3.5694
C	-0.5341	5.1196	4.3423
C	-1.7361	5.8258	4.5636
C	-2.8112	5.2853	5.4026
C	-0.7396	-3.5648	5.6816
C	0.2827	-4.3362	5.1514
C	1.4591	-4.5759	5.8940
C	2.5403	-5.4253	5.3837
C	1.5858	-4.0065	7.1714
C	0.5576	-3.2329	7.7048
C	-0.6200	-3.0079	6.9734
C	-1.6916	-2.2138	7.5824
C	7.4260	0.7375	0.0900
C	7.4228	-0.6280	0.3191
C	6.2071	-1.3404	0.4052
C	6.1907	-2.7922	0.6377
C	4.9999	-0.6398	0.2564
C	5.0030	0.7367	0.0254
C	6.2129	1.4433	-0.0640
C	6.1977	2.8918	-0.3172
H	-1.5156	-2.3434	-7.6660
H	-1.4659	-0.6197	-8.0212
H	-2.2709	-1.7218	-9.1511
H	-3.1077	-3.8634	-8.0566
H	-4.3155	-4.5822	-6.9876
H	-6.4848	-4.0419	-5.9255
H	-6.4003	-3.1639	-4.3879
H	-5.0463	-4.1645	-4.8985
H	-7.7281	-1.7317	-5.3200
H	-7.6748	-0.0231	-5.6144
H	-4.8778	2.2509	-6.1140
H	-6.2638	1.5807	-5.2516
H	-6.3552	1.8270	-7.0042
H	-4.2135	1.8012	-8.2192
H	-2.9249	0.7901	-8.8773
H	-2.7636	1.6706	9.0508
H	-1.9181	2.2809	7.6104
H	-1.8898	0.5605	7.9815
H	-4.6935	4.5071	6.7876
H	-3.5178	3.7974	7.8977
H	-6.7811	3.9636	5.5802
H	-5.2851	4.0946	4.6401
H	-6.6020	3.0889	4.0488
H	-7.9412	-0.0511	5.2050
H	-7.9814	1.6601	4.9274
H	-5.1823	-2.3213	5.8703
H	-6.5235	-1.6526	4.9392
H	-6.7018	-1.8961	6.6857
H	-4.6290	-1.8765	8.0022
H	-3.3873	-0.8607	8.7393
H	5.2629	4.8307	-4.0393
H	6.5741	4.2848	-3.0013
H	6.7117	5.8331	-3.8538
H	7.8740	5.1921	-1.5310
H	7.7828	5.4765	0.1777
H	4.9255	5.9689	2.3844
H	6.3204	5.0995	1.7418
H	6.4242	6.8471	2.0155
H	3.0726	8.7970	0.9008
H	4.3063	8.0916	1.9482
H	1.6304	7.9850	-0.5554
H	1.7183	7.6394	-2.2791
H	2.4911	9.1027	-1.6277
H	4.5620	6.9281	-4.4467
H	3.3463	8.0032	-3.7510
H	6.5753	-5.7301	4.1725
H	5.1159	-4.7310	4.2735
H	6.4785	-4.1885	3.3021
H	7.8253	-5.3468	0.1705
H	7.8491	-5.0921	1.8856
H	5.0858	-5.9228	-2.1466
H	6.5826	-6.7715	-1.7065
H	6.4359	-5.0240	-1.4503
H	3.2183	-8.7730	-0.7340
H	4.5038	-8.0657	-1.7154
H	1.7014	-7.6197	2.3701
H	2.5367	-9.0777	1.7883
H	1.7125	-7.9976	0.6510
H	3.2537	-7.9313	3.9299
H	4.4243	-6.8378	4.6713
H	-8.3541	0.1697	1.0280
H	-8.2945	-0.2334	-1.4496
H	-5.0951	-0.6030	-3.4553
H	-3.9935	-0.2457	-1.3317
H	-4.0528	0.1586	1.1216
H	-5.2540	0.5053	3.1914
H	0.3452	4.8057	-4.1480
H	-1.4270	3.3645	-5.1940
H	-1.0339	1.7865	-8.6442
H	1.0841	2.8062	-8.6465
H	2.8390	4.2286	-7.6096
H	3.6584	5.5816	-5.8653
H	1.6502	-5.1355	-3.3344
H	-0.1246	-4.1504	-4.8148
H	-3.3636	-5.9871	-5.6535
H	-2.5096	-7.6960	-4.2898
H	-0.7519	-8.6721	-2.8286
H	1.3430	-8.6014	-1.7720
H	-2.8267	7.6440	4.1421
H	-1.0155	8.6367	2.7583
H	1.1356	8.5959	1.8152
H	1.4097	5.1375	3.3965
H	-0.4207	4.1348	4.7966
H	-3.7144	5.9254	5.4862
H	-1.6540	-3.3763	5.1183
H	0.1985	-4.7769	4.1576
H	3.4194	-5.5266	6.0540
H	2.4948	-4.1827	7.7508
H	0.6604	-2.8009	8.7027
H	-1.4712	-1.8269	8.5994
H	8.3596	1.2961	0.0202
H	8.3541	-1.1824	0.4361
H	5.1946	-3.2713	0.6866
H	4.0532	-1.1808	0.3218
H	4.0584	1.2729	-0.0908
H	5.2001	3.3589	-0.4223
