252

C	0.1898	2.6712	7.5619
C	0.6360	1.2418	7.7794
C	-0.3317	0.2398	8.0018
C	0.0543	-1.1045	8.1508
C	1.4265	-1.4397	8.1530
C	2.3977	-0.4480	7.9066
C	2.0007	0.8977	7.7519
C	3.0520	1.9836	7.6135
N	3.3076	2.3574	6.2201
C	3.8618	-0.8190	7.7859
C	1.8465	-2.8584	8.4984
N	2.0463	-3.8468	7.4360
C	-0.9947	-2.1871	8.2979
C	-1.7921	0.6322	8.1240
N	-2.4573	0.7115	6.8233
C	1.1215	-6.3486	-5.4674
C	1.6891	-6.7698	-4.1277
C	3.0740	-6.6531	-3.8780
C	3.5906	-6.9553	-2.6014
C	2.7322	-7.4566	-1.5993
C	1.3528	-7.5909	-1.8486
C	0.8399	-7.2723	-3.1237
C	-0.6246	-7.5386	-3.4296
N	-1.4936	-6.4155	-3.0747
C	0.4077	-8.0633	-0.7645
C	3.3083	-7.9035	-0.2659
N	3.2227	-6.8587	0.7546
C	5.0563	-6.7299	-2.2905
C	4.0113	-6.2802	-5.0148
N	4.3909	-4.8829	-5.2376
C	-7.6650	3.6346	0.1652
C	-7.7813	2.4862	-0.8148
C	-8.3384	1.2536	-0.4155
C	-8.3952	0.1744	-1.3236
C	-7.9689	0.3581	-2.6545
C	-7.3906	1.5822	-3.0525
C	-7.3247	2.6517	-2.1390
C	-6.8472	4.0138	-2.6087
N	-5.3990	4.2023	-2.4969
C	-6.8523	1.7462	-4.4583
C	-8.2214	-0.7216	-3.6932
N	-7.2200	-1.7588	-3.9404
C	-8.9183	-1.1740	-0.8708
C	-8.9690	1.1095	0.9591
N	-8.1433	0.7931	2.1246
C	3.8735	4.7190	-5.7608
C	4.3250	5.3380	-4.4546
C	5.4218	4.7924	-3.7599
C	5.8265	5.3391	-2.5238
C	5.1505	6.4617	-2.0028
C	4.0337	6.9943	-2.6815
C	3.6559	6.4652	-3.9316
C	2.6161	7.1819	-4.7765
N	1.2016	6.8281	-4.6882
C	3.2494	8.1372	-2.0701
C	5.6788	7.1732	-0.7681
N	5.3012	6.7216	0.5716
C	6.9754	4.7097	-1.7643
C	6.2287	3.6712	-4.3912
N	5.7112	2.3352	-4.0870
C	2.6236	-4.8950	2.7625
C	2.6680	-6.2729	3.0262
C	2.8409	-7.2248	1.9260
C	2.5065	-6.7227	4.3610
O	2.5664	-8.0807	4.5622
C	2.4258	-8.5526	5.9055
C	2.3131	-5.7941	5.3811
C	2.2588	-4.4162	5.1176
C	2.0404	-3.4602	6.2110
C	2.4147	-3.9686	3.7823
O	2.3505	-2.6105	3.5800
C	2.4982	-2.1423	2.2405
C	-3.8505	0.5653	4.2907
C	-4.4520	0.3008	5.5321
C	-3.6522	0.2452	6.7589
C	-5.8553	0.1070	5.5868
O	-6.3910	-0.1613	6.8232
C	-7.8058	-0.3597	6.8959
C	-6.6140	0.2337	4.4269
C	-6.0191	0.5202	3.1892
C	-6.8647	0.7422	2.0070
C	-4.6094	0.6543	3.1230
O	-4.0755	0.8823	1.8763
C	-2.6688	1.1198	1.7949
C	4.6026	5.8909	3.1879
C	4.3407	5.1062	2.0539
C	4.6625	5.6164	0.7133
C	3.7963	3.8098	2.2302
O	3.5559	3.0891	1.0834
C	3.0093	1.7799	1.2295
C	3.5463	3.3320	3.5157
C	3.8073	4.1192	4.6490
C	3.5278	3.6029	5.9923
C	4.3399	5.4219	4.4728
O	4.5880	6.1434	5.6156
C	5.1396	7.4538	5.4585
C	-3.2405	-4.1423	-2.6246
C	-3.3141	-4.9730	-3.7564
C	-2.3523	-6.0594	-3.9624
C	-4.3456	-4.7541	-4.7062
O	-4.3795	-5.6064	-5.7850
C	-5.4211	-5.4061	-6.7450
C	-5.2632	-3.7269	-4.5026
C	-5.1926	-2.8984	-3.3725
C	-6.1946	-1.8429	-3.1713
C	-4.1616	-3.1132	-2.4229
O	-4.1628	-2.2736	-1.3371
C	-3.1487	-2.4598	-0.3474
C	5.0985	-2.1748	-5.7353
C	4.4210	-2.5787	-4.5740
C	4.0210	-3.9836	-4.3982
C	4.1563	-1.6144	-3.5691
O	3.4873	-2.0639	-2.4555
C	3.1995	-1.1101	-1.4345
C	4.5823	-0.2981	-3.7419
C	5.2648	0.1035	-4.9020
C	5.7160	1.4898	-5.0566
C	5.5180	-0.8578	-5.9148
O	6.1988	-0.4174	-7.0253
C	6.4803	-1.3775	-8.0478
C	-1.5212	6.1226	-4.6841
C	-0.6381	5.6743	-3.6904
C	0.7912	6.0120	-3.7854
C	-1.1535	4.9120	-2.6117
O	-0.2459	4.5151	-1.6601
C	-0.7341	3.7384	-0.5657
C	-2.5169	4.6166	-2.5617
C	-3.3978	5.0610	-3.5619
C	-4.8281	4.7507	-3.5103
C	-2.8806	5.8300	-4.6367
O	-3.7834	6.2559	-5.5802
C	-3.2784	7.0360	-6.6675
H	-0.0267	3.1813	8.5156
H	0.9457	3.2625	7.0364
H	-0.7238	2.7033	6.9548
H	4.0029	1.6143	8.0259
H	2.7752	2.8604	8.2298
H	4.3285	-0.2822	6.9497
H	4.4315	-0.5712	8.6967
H	3.9988	-1.8887	7.5939
H	1.1191	-3.2998	9.1967
H	2.7872	-2.8371	9.0739
H	-1.2931	-2.3388	9.3483
H	-1.9011	-1.9407	7.7325
H	-0.6344	-3.1494	7.9152
H	-1.8493	1.6358	8.5752
H	-2.3211	-0.0444	8.8204
H	0.1079	-5.9455	-5.3610
H	1.7277	-5.5615	-5.9311
H	1.0682	-7.1889	-6.1792
H	-0.9561	-8.4030	-2.8330
H	-0.7456	-7.8340	-4.4889
H	-0.5522	-7.5362	-0.8306
H	0.2016	-9.1440	-0.8424
H	0.8075	-7.8767	0.2368
H	4.3739	-8.1429	-0.3989
H	2.8217	-8.8426	0.0616
H	5.6356	-7.6676	-2.3166
H	5.5225	-6.0355	-2.9980
H	5.1764	-6.2962	-1.2893
H	4.9586	-6.8351	-4.9092
H	3.5996	-6.6417	-5.9697
H	-8.4530	4.3895	0.0080
H	-7.7348	3.2987	1.2052
H	-6.6976	4.1416	0.0546
H	-7.2039	4.2000	-3.6404
H	-7.3168	4.7879	-1.9828
H	-7.6055	2.1733	-5.1410
H	-6.5295	0.7875	-4.8806
H	-5.9814	2.4109	-4.4757
H	-9.1558	-1.2551	-3.4503
H	-8.4294	-0.2539	-4.6679
H	-8.5161	-1.9891	-1.4831
H	-8.6287	-1.3823	0.1669
H	-10.0180	-1.2326	-0.9228
H	-9.7653	0.3509	0.9295
H	-9.5008	2.0416	1.2166
H	3.9907	3.6294	-5.7447
H	2.8154	4.9234	-5.9614
H	4.4536	5.0989	-6.6182
H	2.6680	8.2661	-4.5804
H	2.8870	7.0939	-5.8404
H	3.2134	8.0516	-0.9768
H	3.6891	9.1201	-2.3078
H	2.2119	8.1480	-2.4238
H	5.4235	8.2421	-0.8171
H	6.7824	7.1627	-0.7856
H	6.8994	3.6147	-1.7872
H	7.9529	4.9811	-2.1960
H	6.9872	5.0099	-0.7112
H	7.2560	3.7109	-3.9979
H	6.3148	3.8380	-5.4824
H	2.7509	-4.5961	1.7236
H	2.6110	-8.2801	2.1580
H	3.2243	-8.1587	6.5544
H	2.5074	-9.6431	5.8455
H	1.4454	-8.2798	6.3279
H	2.1948	-6.0923	6.4211
H	1.8769	-2.4103	5.9233
H	2.4079	-1.0517	2.2990
H	1.7080	-2.5425	1.5832
H	3.4841	-2.4075	1.8245
H	-2.7705	0.7022	4.2905
H	-4.1489	-0.1988	7.6398
H	-8.0195	-0.5763	7.9481
H	-8.1255	-1.2101	6.2725
H	-8.3546	0.5447	6.5882
H	-7.6985	0.1456	4.4323
H	-6.3491	0.8990	1.0471
H	-2.0889	0.2481	2.1416
H	-2.4629	1.2972	0.7335
H	-2.3753	2.0051	2.3823
H	5.0305	6.8749	3.0066
H	4.3514	4.9968	-0.1418
H	3.6916	1.1173	1.7874
H	2.0313	1.8026	1.7400
H	2.8808	1.3996	0.2100
H	3.1437	2.3369	3.6971
H	3.5217	4.3511	6.8049
H	6.1232	7.4180	4.9635
H	4.4654	8.1082	4.8828
H	5.2547	7.8492	6.4732
H	-2.4376	-4.3460	-1.9180
H	-2.4162	-6.5741	-4.9369
H	-5.3552	-4.4086	-7.2086
H	-5.2699	-6.1754	-7.5098
H	-6.4164	-5.5307	-6.2892
H	-6.0777	-3.5304	-5.1968
H	-6.0253	-1.1508	-2.3323
H	-2.1418	-2.3072	-0.7699
H	-3.2048	-3.4639	0.1030
H	-3.3483	-1.7031	0.4197
H	5.2886	-2.9482	-6.4770
H	3.4105	-4.2173	-3.5124
H	2.6513	-1.6619	-0.6630
H	2.5694	-0.2890	-1.8157
H	4.1223	-0.6896	-1.0017
H	4.4121	0.4688	-2.9883
H	6.0778	1.7682	-6.0622
H	7.1148	-2.1940	-7.6676
H	5.5542	-1.8013	-8.4683
H	7.0185	-0.8286	-8.8280
H	-1.0834	6.7126	-5.4867
H	1.4686	5.5401	-3.0561
H	0.1395	3.5377	0.0652
H	-1.1684	2.7858	-0.9123
H	-1.4891	4.2902	0.0177
H	-2.9524	4.0358	-1.7504
H	-5.4066	5.0346	-4.4069
H	-4.1473	7.2675	-7.2928
H	-2.5395	6.4718	-7.2588
H	-2.8212	7.9729	-6.3111
