264

C	-3.8421	7.5421	7.7132
C	-4.7726	7.5853	6.5197
C	-5.8633	6.6934	6.4535
C	-6.6937	6.6663	5.3167
C	-6.4691	7.5854	4.2704
C	-5.3835	8.4801	4.3263
C	-4.5597	8.5054	5.4730
C	-3.4929	9.5776	5.6189
N	-2.1312	9.3316	5.1408
C	-5.0946	9.4029	3.1602
C	-7.4505	7.6495	3.1126
N	-7.1970	6.6261	2.1006
C	-7.8179	5.6593	5.1951
C	-6.1813	5.8061	7.6486
N	-5.3808	4.5850	7.6598
C	8.6334	5.8051	-3.5108
C	9.3291	4.7042	-2.7388
C	9.8265	3.5643	-3.4038
C	10.4112	2.5122	-2.6669
C	10.5690	2.6373	-1.2709
C	10.0649	3.7719	-0.5999
C	9.4768	4.8165	-1.3406
C	9.0754	6.1053	-0.6422
N	7.6680	6.1371	-0.2435
C	10.1550	3.8690	0.9089
C	11.3669	1.5932	-0.5073
N	10.6981	0.4281	0.0739
C	10.8732	1.2553	-3.3757
C	9.8295	3.5038	-4.9224
N	8.6974	2.9226	-5.6449
C	1.7899	-7.2058	7.7699
C	1.1055	-8.1367	6.7912
C	-0.2828	-8.3626	6.8566
C	-0.9204	-9.1713	5.8922
C	-0.1513	-9.8170	4.9037
C	1.2405	-9.5894	4.8264
C	1.8672	-8.7789	5.7923
C	3.3810	-8.6447	5.8045
N	3.8434	-7.4177	5.1588
C	2.0512	-10.2052	3.7049
C	-0.8029	-10.8258	3.9721
N	-1.2977	-10.4069	2.6586
C	-2.4256	-9.3329	5.9239
C	-1.0924	-7.7949	8.0121
N	-1.7800	-6.5532	7.6639
C	-4.5297	0.7140	-10.2498
C	-4.7780	-0.7036	-9.7805
C	-3.7753	-1.6794	-9.9483
C	-3.9563	-2.9832	-9.4449
C	-5.1733	-3.3208	-8.8175
C	-6.1796	-2.3493	-8.6396
C	-5.9982	-1.0535	-9.1660
C	-7.1374	-0.0503	-9.1317
N	-7.2521	0.8853	-8.0115
C	-7.4364	-2.7005	-7.8711
C	-5.4298	-4.7526	-8.3773
N	-5.0542	-4.9850	-6.9840
C	-2.8466	-4.0074	-9.5663
C	-2.5158	-1.3253	-10.7210
N	-1.4983	-0.7181	-9.8657
C	5.8825	7.2516	2.7624
C	4.6084	7.4695	3.2810
C	3.4607	7.1253	2.5424
C	3.6426	6.5422	1.2699
C	4.9124	6.3363	0.7459
C	6.0569	6.6948	1.4833
C	7.4135	6.5351	0.9489
C	2.1057	7.3909	3.0720
C	1.0490	6.4830	2.8761
C	-0.2272	6.7554	3.3672
C	-0.4941	7.9486	4.0586
C	-1.8497	8.2270	4.5550
C	0.5607	8.8591	4.2567
C	1.8334	8.5827	3.7778
C	-3.2008	-4.0139	7.2657
C	-3.8066	-2.7693	7.1486
C	-3.3996	-1.6804	7.9489
C	-2.3556	-1.8871	8.8691
C	-1.7582	-3.1380	8.9982
C	-2.1700	-4.2202	8.2019
C	-1.5335	-5.5277	8.3920
C	-4.0605	-0.3631	7.8401
C	-3.3111	0.8304	7.9140
C	-3.9276	2.0720	7.8426
C	-5.3249	2.1679	7.7067
C	-6.0060	3.4668	7.6682
C	-6.0761	0.9834	7.6259
C	-5.4548	-0.2623	7.6835
C	-5.6486	1.5511	-4.7891
C	-5.7169	2.4009	-3.6863
C	-6.6404	3.4615	-3.6499
C	-7.4964	3.6331	-4.7595
C	-7.4366	2.7809	-5.8525
C	-6.5091	1.7226	-5.8860
C	-6.4293	0.8060	-7.0318
C	-6.7269	4.3686	-2.4867
C	-6.5728	3.8841	-1.1696
C	-6.6990	4.7265	-0.0723
C	-6.9713	6.0957	-0.2516
C	-7.1589	7.0100	0.8787
C	-7.0965	6.5892	-1.5611
C	-6.9840	5.7412	-2.6592
C	9.4309	-1.9354	1.1118
C	8.7537	-3.0183	1.6553
C	7.3433	-3.0545	1.6967
C	6.6386	-1.9634	1.1560
C	7.3184	-0.8809	0.5979
C	8.7227	-0.8436	0.5752
C	9.4232	0.3172	0.0046
C	6.6448	-4.2019	2.3137
C	5.5080	-4.0094	3.1281
C	4.8845	-5.0791	3.7574
C	5.3688	-6.3895	3.5858
C	4.7663	-7.5340	4.2769
C	6.4817	-6.5912	2.7519
C	7.1143	-5.5161	2.1327
C	6.5346	1.7183	-7.0940
C	5.4325	1.1866	-7.7475
C	4.2261	0.9343	-7.0599
C	4.1742	1.2284	-5.6852
C	5.2858	1.7491	-5.0244
C	6.4792	2.0097	-5.7180
C	7.6361	2.5810	-5.0130
C	3.0567	0.3821	-7.7756
C	3.2202	-0.6029	-8.7673
C	2.1217	-1.1118	-9.4540
C	0.8238	-0.6453	-9.1854
C	-0.3049	-1.1763	-9.9564
C	0.6528	0.3349	-8.1903
C	1.7484	0.8328	-7.4967
C	-2.2160	-9.5950	0.0426
C	-2.6355	-9.1303	-1.1964
C	-2.5974	-7.7550	-1.5156
C	-2.1318	-6.8629	-0.5325
C	-1.7026	-7.3292	0.7093
C	-1.7332	-8.7003	1.0166
C	-1.2567	-9.1688	2.3275
C	-3.0247	-7.2808	-2.8494
C	-3.7212	-6.0632	-3.0100
C	-4.1389	-5.6300	-4.2624
C	-3.8659	-6.3986	-5.4097
C	-4.3105	-6.0017	-6.7483
C	-3.1560	-7.6016	-5.2587
C	-2.7475	-8.0389	-4.0022
H	-2.8414	7.9120	7.4612
H	-3.7266	6.5138	8.0766
H	-4.2184	8.1539	8.5504
H	-3.8256	10.5053	5.1256
H	-3.3962	9.8621	6.6786
H	-5.3077	8.9107	2.2033
H	-5.6992	10.3238	3.1976
H	-4.0406	9.7023	3.1329
H	-7.4707	8.6658	2.6778
H	-8.4638	7.4663	3.5063
H	-7.9881	5.3907	4.1463
H	-8.7655	6.0451	5.6066
H	-7.5853	4.7304	5.7267
H	-5.9388	6.3592	8.5699
H	-7.2654	5.5931	7.6893
H	9.3178	6.6363	-3.7494
H	7.7993	6.2190	-2.9306
H	8.2195	5.4400	-4.4577
H	9.7491	6.2999	0.2137
H	9.2248	6.9421	-1.3428
H	9.2697	4.3631	1.3272
H	10.2157	2.8794	1.3761
H	11.0369	4.4439	1.2354
H	11.9160	2.0733	0.3188
H	12.1623	1.1925	-1.1555
H	10.2491	1.0377	-4.2509
H	10.8191	0.3798	-2.7177
H	11.9148	1.3387	-3.7276
H	9.9629	4.5177	-5.3341
H	10.7219	2.9588	-5.2674
H	2.1429	-7.7372	8.6693
H	1.1175	-6.4083	8.1040
H	2.6538	-6.7176	7.3043
H	3.8510	-9.5450	5.3671
H	3.7190	-8.6020	6.8526
H	1.4280	-10.4347	2.8334
H	2.8354	-9.5195	3.3610
H	2.5459	-11.1406	4.0143
H	-0.1040	-11.6562	3.7817
H	-1.6540	-11.3077	4.4790
H	-2.9071	-8.4096	6.2680
H	-2.8296	-9.5585	4.9300
H	-2.7391	-10.1468	6.5993
H	-0.4511	-7.6760	8.9051
H	-1.8701	-8.5259	8.2855
H	-5.1637	1.4349	-9.7218
H	-4.7242	0.8317	-11.3292
H	-3.4878	1.0046	-10.0667
H	-7.1146	0.5671	-10.0438
H	-8.1035	-0.5765	-9.1913
H	-7.9105	-1.8107	-7.4414
H	-8.1869	-3.1990	-8.5072
H	-7.2047	-3.3768	-7.0388
H	-4.9283	-5.4607	-9.0645
H	-6.5083	-4.9589	-8.4594
H	-2.8684	-4.7234	-8.7378
H	-1.8594	-3.5324	-9.5411
H	-2.9139	-4.5827	-10.5041
H	-2.7737	-0.5824	-11.4922
H	-2.1302	-2.2094	-11.2630
H	6.7606	7.5209	3.3538
H	4.4968	7.8929	4.2800
H	2.7662	6.2868	0.6723
H	5.0460	5.9106	-0.2490
H	8.2302	6.8122	1.6483
H	1.2378	5.5423	2.3567
H	-1.0321	6.0325	3.2162
H	-2.6031	7.4334	4.3928
H	0.3493	9.7886	4.7858
H	2.6318	9.3131	3.9176
H	-3.5116	-4.8509	6.6398
H	-4.5959	-2.6215	6.4099
H	-2.0389	-1.0669	9.5146
H	-0.9662	-3.2863	9.7358
H	-0.8156	-5.5807	9.2370
H	-2.2255	0.7724	8.0065
H	-3.3452	2.9924	7.8904
H	-7.1150	3.4222	7.6583
H	-7.1626	1.0426	7.5281
H	-6.0581	-1.1703	7.6462
H	-4.9153	0.7417	-4.8059
H	-5.0254	2.2608	-2.8543
H	-8.2397	4.4316	-4.7404
H	-8.1106	2.9057	-6.7003
H	-5.6236	0.0491	-6.9952
H	-6.3907	2.8200	-1.0116
H	-6.6049	4.3424	0.9437
H	-7.2957	8.0775	0.6057
H	-7.2901	7.6530	-1.7165
H	-7.0727	6.1486	-3.6670
H	10.5205	-1.9025	1.1003
H	9.3199	-3.8430	2.0910
H	5.5478	-1.9769	1.1514
H	6.7538	-0.0480	0.1725
H	8.7875	1.0825	-0.4803
H	5.1386	-2.9963	3.2950
H	4.0225	-4.9235	4.4066
H	5.1848	-8.5262	4.0069
H	6.8581	-7.6048	2.5953
H	7.9714	-5.6948	1.4822
H	7.4590	1.9304	-7.6314
H	5.4856	0.9895	-8.8193
H	3.2620	1.0182	-5.1250
H	5.2317	1.9588	-3.9536
H	7.5333	2.7002	-3.9176
H	4.2175	-0.9899	-8.9801
H	2.2674	-1.8839	-10.2131
H	-0.0561	-2.0060	-10.6512
H	-0.3543	0.6999	-7.9863
H	1.6022	1.6106	-6.7457
H	-2.2542	-10.6568	0.2867
H	-3.0260	-9.8367	-1.9305
H	-2.0703	-5.7974	-0.7581
H	-1.3243	-6.6232	1.4521
H	-0.8561	-8.3902	3.0039
H	-3.9645	-5.4692	-2.1278
H	-4.6941	-4.6986	-4.3779
H	-3.9693	-6.6658	-7.5707
H	-2.9231	-8.2003	-6.1423
H	-2.1813	-8.9667	-3.9119
