268

C	-5.5447	3.0116	-7.3537
C	-4.1818	3.6203	-7.6109
C	-3.8768	4.8912	-7.0751
C	-2.5882	5.4377	-7.2248
C	-1.6172	4.7379	-7.9755
C	-1.9104	3.4708	-8.5127
C	-3.2069	2.9319	-8.3557
C	-3.5384	1.5957	-9.0054
N	-3.0698	0.4877	-8.1786
C	-0.8543	2.6591	-9.2321
C	-0.2479	5.3677	-8.1953
N	0.6177	5.1410	-7.0414
C	-2.2143	6.7505	-6.5699
C	-4.9597	5.6623	-6.3306
N	-5.0663	5.1932	-4.9518
C	4.8854	-8.2973	-0.7171
C	5.7529	-7.2782	-1.4254
C	6.7312	-6.5457	-0.7284
C	7.4725	-5.5364	-1.3814
C	7.2749	-5.3123	-2.7563
C	6.2909	-6.0373	-3.4655
C	5.5588	-7.0405	-2.8045
C	4.5461	-7.8826	-3.5677
N	3.1932	-7.3635	-3.3841
C	6.0256	-5.7029	-4.9189
C	8.1181	-4.2843	-3.4976
N	7.3918	-3.0254	-3.6313
C	8.4480	-4.6999	-0.5796
C	6.9983	-6.8255	0.7430
N	6.2733	-5.8779	1.5856
C	-8.9082	-3.0632	2.0639
C	-8.0479	-3.6700	3.1529
C	-7.4632	-4.9393	2.9488
C	-6.5791	-5.4809	3.8998
C	-6.3284	-4.7736	5.0969
C	-6.9070	-3.5097	5.3123
C	-7.7964	-2.9782	4.3516
C	-8.4740	-1.6437	4.6263
N	-7.5838	-0.5360	4.2918
C	-6.5713	-2.6941	6.5431
C	-5.4227	-5.3952	6.1510
N	-4.0169	-5.1682	5.8275
C	-5.8702	-6.7958	3.6520
C	-7.7942	-5.7102	1.6796
N	-6.9757	-5.2364	0.5677
C	6.0268	4.7778	5.8446
C	4.7588	5.6050	5.8225
C	4.6078	6.6153	4.8467
C	3.4044	7.3385	4.7488
C	2.3729	7.1011	5.6844
C	2.5103	6.0940	6.6574
C	3.7199	5.3688	6.7416
C	3.8856	4.3317	7.8433
N	3.2596	3.0669	7.4644
C	1.3756	5.7537	7.6003
C	1.1090	7.9496	5.6309
N	0.1828	7.4339	4.6282
C	3.1853	8.3467	3.6405
C	5.7648	6.9110	3.9012
N	5.7847	5.9560	2.7969
C	-5.1931	-4.3828	-1.5534
C	-4.3197	-4.0463	-2.5765
C	-3.5937	-5.0475	-3.2538
C	-3.7690	-6.3905	-2.8793
C	-4.6400	-6.7179	-1.8442
C	-5.3687	-5.7259	-1.1656
C	-6.2642	-6.0939	-0.0660
N	-2.6754	-4.7040	-4.2792
C	-2.9773	-3.6524	-5.1805
C	-1.9800	-2.7301	-5.5613
C	-2.2798	-1.6842	-6.4198
C	-3.5836	-1.5137	-6.9265
C	-3.9261	-0.3890	-7.8007
C	-4.5717	-2.4387	-6.5463
C	-4.2783	-3.4983	-5.6919
C	-1.3992	-5.3230	-4.3127
C	-0.7981	-5.6502	-5.5401
C	0.4732	-6.2158	-5.5648
C	1.1726	-6.4872	-4.3759
C	2.5202	-7.0588	-4.4320
C	0.5560	-6.1708	-3.1493
C	-0.7054	-5.5956	-3.1153
C	2.3597	4.4907	-4.8057
C	3.2378	4.1443	-3.7898
C	4.4661	3.5181	-4.0884
C	4.7895	3.2605	-5.4321
C	3.8968	3.6016	-6.4441
C	2.6693	4.2222	-6.1538
C	1.7392	4.5508	-7.2367
N	5.3508	3.1289	-3.0497
C	5.4806	3.9394	-1.8921
C	5.5778	5.3363	-2.0099
C	5.6616	6.1285	-0.8679
C	5.6696	5.5563	0.4159
C	5.7300	6.4161	1.6016
C	5.5842	4.1539	0.5237
C	5.4874	3.3579	-0.6072
C	5.9987	1.8683	-3.1041
C	5.3326	0.7431	-3.6335
C	5.9570	-0.4943	-3.6657
C	7.2630	-0.6586	-3.1624
C	7.9242	-1.9655	-3.1452
C	7.9201	0.4667	-2.6350
C	7.3061	1.7161	-2.6099
C	-7.7106	2.3986	2.0906
C	-6.9450	3.4599	1.6170
C	-5.6114	3.6080	2.0355
C	-5.0725	2.6776	2.9483
C	-5.8466	1.6301	3.4235
C	-7.1809	1.4671	3.0005
C	-8.0017	0.3424	3.4566
N	-4.8127	4.6663	1.5325
C	-3.8761	5.3069	2.3833
C	-2.5842	5.6237	1.9142
C	-1.6587	6.2202	2.7556
C	-1.9835	6.5172	4.0939
C	-0.9987	7.1071	5.0036
C	-3.2736	6.2020	4.5540
C	-4.2133	5.6110	3.7136
C	-4.8683	5.0083	0.1564
C	-4.7653	6.3507	-0.2490
C	-4.7819	6.6741	-1.6033
C	-4.9204	5.6808	-2.5886
C	-4.9082	6.0467	-4.0081
C	-5.0344	4.3394	-2.1720
C	-5.0044	4.0059	-0.8261
C	-1.1236	-3.6369	7.4842
C	0.2086	-3.2905	7.2800
C	0.8166	-3.5333	6.0365
C	0.0661	-4.1500	5.0144
C	-1.2567	-4.5038	5.2310
C	-1.8793	-4.2481	6.4687
C	-3.2870	-4.5781	6.7006
N	2.1569	-3.1312	5.8072
C	2.5959	-1.8585	6.2546
C	1.7343	-0.7428	6.1988
C	2.1751	0.5080	6.6039
C	3.4915	0.6933	7.0712
C	3.9889	2.0120	7.4717
C	4.3428	-0.4243	7.1271
C	3.9056	-1.6861	6.7340
C	3.0050	-3.9263	4.9948
C	2.9980	-5.3268	5.1178
C	3.8013	-6.1031	4.2877
C	4.6410	-5.5126	3.3278
C	5.4621	-6.3551	2.4565
C	4.6511	-4.1080	3.2202
C	3.8470	-3.3264	4.0351
H	-6.2856	3.3248	-8.1082
H	-5.5093	1.9174	-7.3651
H	-5.9200	3.3067	-6.3670
H	-3.0153	1.5321	-9.9727
H	-4.6184	1.5261	-9.2303
H	-0.8841	2.8167	-10.3231
H	0.1552	2.9132	-8.8930
H	-0.9937	1.5886	-9.0409
H	-0.3710	6.4563	-8.3095
H	0.2026	5.0045	-9.1372
H	-2.3571	7.6070	-7.2498
H	-2.8124	6.9425	-5.6732
H	-1.1643	6.7402	-6.2547
H	-5.9284	5.4782	-6.8214
H	-4.7795	6.7511	-6.3928
H	3.8780	-8.3156	-1.1492
H	4.7693	-8.0642	0.3460
H	5.3042	-9.3150	-0.7871
H	4.8256	-7.9594	-4.6346
H	4.5643	-8.9089	-3.1681
H	6.1764	-4.6328	-5.1032
H	6.6887	-6.2631	-5.5992
H	4.9941	-5.9320	-5.2059
H	9.1001	-4.1550	-3.0071
H	8.3244	-4.6590	-4.5128
H	8.6016	-3.7125	-1.0264
H	8.0694	-4.5338	0.4359
H	9.4364	-5.1822	-0.4996
H	8.0732	-6.6936	0.9426
H	6.7619	-7.8762	0.9921
H	-8.5338	-3.3476	1.0735
H	-9.9592	-3.3891	2.1370
H	-8.9016	-1.9692	2.1037
H	-8.7002	-1.5750	5.7020
H	-9.4436	-1.5794	4.0993
H	-7.2985	-2.8542	7.3564
H	-5.5804	-2.9421	6.9371
H	-6.5593	-1.6239	6.3053
H	-5.5882	-6.4840	6.1644
H	-5.6865	-5.0281	7.1598
H	-6.4176	-7.6485	4.0869
H	-5.7480	-6.9969	2.5826
H	-4.8645	-6.7807	4.0884
H	-7.6971	-6.7992	1.8416
H	-8.8485	-5.5281	1.4168
H	5.8556	3.7824	6.2675
H	6.4094	4.6289	4.8280
H	6.8213	5.2565	6.4410
H	3.3780	4.6934	8.7514
H	4.9513	4.2097	8.1106
H	1.4556	6.2975	8.5565
H	1.3660	4.6799	7.8213
H	0.4002	5.9967	7.1668
H	0.6473	8.0260	6.6325
H	1.3825	8.9749	5.3356
H	3.4621	9.3685	3.9493
H	2.1332	8.3595	3.3326
H	3.7739	8.1037	2.7498
H	5.7264	7.9588	3.5508
H	6.7114	6.8020	4.4536
H	-5.7403	-3.6109	-1.0118
H	-4.1753	-3.0023	-2.8550
H	-3.2106	-7.1690	-3.3992
H	-4.7658	-7.7652	-1.5602
H	-6.2827	-7.1726	0.1963
H	-0.9727	-2.8367	-5.1591
H	-1.5170	-0.9560	-6.6962
H	-4.9910	-0.3317	-8.1098
H	-5.5875	-2.3284	-6.9326
H	-5.0543	-4.2084	-5.4071
H	-1.3304	-5.4456	-6.4689
H	0.9329	-6.4596	-6.5254
H	2.9337	-7.2076	-5.4517
H	1.1059	-6.3615	-2.2274
H	-1.1641	-5.3334	-2.1619
H	1.3997	4.9536	-4.5763
H	2.9765	4.3377	-2.7494
H	5.7387	2.7818	-5.6725
H	4.1595	3.3910	-7.4834
H	2.0647	4.2453	-8.2534
H	5.5749	5.7920	-3.0002
H	5.7307	7.2136	-0.9725
H	5.7098	7.5078	1.4000
H	5.5662	3.7104	1.5195
H	5.3991	2.2756	-0.5117
H	4.3135	0.8520	-4.0041
H	5.4362	-1.3702	-4.0532
H	8.9260	-1.9860	-2.6668
H	8.9345	0.3612	-2.2433
H	7.8291	2.5802	-2.2005
H	-8.7443	2.2916	1.7543
H	-7.3691	4.1766	0.9139
H	-4.0351	2.7816	3.2658
H	-5.4267	0.8954	4.1109
H	-9.0198	0.2869	3.0168
H	-2.3148	5.3785	0.8870
H	-0.6509	6.4444	2.4050
H	-1.3349	7.2426	6.0529
H	-3.5457	6.4290	5.5872
H	-5.2108	5.3723	4.0821
H	-4.6620	7.1321	0.5037
H	-4.6956	7.7206	-1.9047
H	-4.7364	7.1228	-4.2210
H	-5.1173	3.5648	-2.9348
H	-5.0709	2.9625	-0.5177
H	-1.5877	-3.4374	8.4528
H	0.7851	-2.8176	8.0749
H	0.5312	-4.3295	4.0451
H	-1.8488	-4.9589	4.4367
H	-3.6934	-4.2734	7.6879
H	0.7211	-0.8704	5.8182
H	1.5192	1.3766	6.5412
H	5.0553	2.0458	7.7788
H	5.3648	-0.3018	7.4931
H	4.5762	-2.5439	6.7835
H	2.3525	-5.7967	5.8598
H	3.7845	-7.1906	4.3898
H	5.3333	-7.4494	2.5919
H	5.2868	-3.6506	2.4617
H	3.8469	-2.2417	3.9282
