300

C	4.7767	-2.5498	9.8613
C	5.2736	-3.7043	9.0175
C	6.4901	-3.6249	8.3146
C	6.8954	-4.6780	7.4645
C	6.0988	-5.8356	7.3592
C	4.8706	-5.9192	8.0549
C	4.4858	-4.8718	8.9123
C	3.1992	-4.9744	9.7187
N	2.1205	-4.2651	9.0366
C	3.9637	-7.1155	7.8496
C	6.5235	-6.9924	6.4741
N	6.0492	-7.0071	5.0804
C	8.1622	-4.5272	6.6487
C	7.3760	-2.3950	8.4516
N	7.1138	-1.4454	7.3717
C	-5.7961	-6.8275	-6.8593
C	-6.4388	-7.1511	-5.5279
C	-7.5748	-6.4540	-5.0738
C	-8.1112	-6.7179	-3.7941
C	-7.5299	-7.7151	-2.9856
C	-6.3794	-8.4075	-3.4285
C	-5.8678	-8.1540	-4.7147
C	-4.6782	-8.9508	-5.2331
N	-3.4405	-8.2056	-5.0231
C	-5.6848	-9.3933	-2.5121
C	-8.1166	-8.0480	-1.6255
N	-7.6013	-7.3345	-0.4464
C	-9.2828	-5.8980	-3.2957
C	-8.2315	-5.3963	-5.9503
N	-7.7331	-4.0665	-5.6032
C	5.3095	1.7657	-9.4877
C	6.1564	2.5823	-8.5335
C	7.2864	1.9998	-7.9159
C	8.0226	2.7257	-6.9588
C	7.6589	4.0570	-6.6606
C	6.5370	4.6460	-7.2736
C	5.8134	3.9154	-8.2413
C	4.6608	4.5834	-8.9772
N	3.4222	4.5041	-8.2054
C	6.0758	6.0373	-6.8941
C	8.4841	4.8428	-5.6533
N	8.0401	4.5431	-4.2947
C	9.1784	2.0889	-6.2172
C	7.6754	0.5795	-8.2795
N	7.0585	-0.5234	-7.5265
C	-4.2878	7.8421	6.3653
C	-5.0103	8.1263	5.0647
C	-6.2712	7.5385	4.8134
C	-6.8949	7.7139	3.5624
C	-6.2826	8.5273	2.5826
C	-5.0357	9.1300	2.8327
C	-4.4222	8.9553	4.0925
C	-3.1200	9.6798	4.3982
N	-1.9669	8.9426	3.8859
C	-4.3243	9.9385	1.7692
C	-6.9845	8.7309	1.2484
N	-6.6982	7.6173	0.3453
C	-8.1967	7.0137	3.2369
C	-6.9240	6.7096	5.9043
N	-6.5827	5.2809	5.9901
C	5.6279	-2.6087	-6.0509
C	5.0187	-3.5536	-5.2329
C	4.6202	-3.2288	-3.9200
C	4.8439	-1.9197	-3.4590
C	5.4284	-0.9646	-4.2877
C	5.8371	-1.2954	-5.5906
C	6.4602	-0.2581	-6.4239
C	3.9700	-4.2348	-3.0470
C	4.3801	-4.3936	-1.7139
C	3.7915	-5.3607	-0.8841
C	2.7546	-6.1543	-1.3985
C	2.2954	-5.9901	-2.7164
C	2.9307	-5.0413	-3.5361
C	1.1109	-6.7396	-3.1976
C	0.1514	-6.1030	-4.0140
C	-1.0068	-6.7571	-4.4106
C	-1.2531	-8.0818	-4.0056
C	-2.5066	-8.7649	-4.3461
C	-0.2899	-8.7315	-3.2146
C	0.8720	-8.0721	-2.8157
C	4.2417	-5.5228	0.5168
C	4.4367	-4.4002	1.3392
C	4.8440	-4.5509	2.6621
C	5.1028	-5.8242	3.1960
C	5.5661	-5.9268	4.5866
C	4.9134	-6.9513	2.3750
C	4.4786	-6.8012	1.0627
C	-0.0322	-3.0073	7.5365
C	-1.0812	-2.5033	6.7796
C	-2.2008	-3.2999	6.4559
C	-2.2378	-4.6184	6.9427
C	-1.1864	-5.1254	7.7036
C	-0.0644	-4.3345	8.0038
C	1.0559	-4.9180	8.7506
C	-3.2674	-2.7660	5.5790
C	-3.6635	-1.4205	5.6649
C	-4.5773	-0.8716	4.7530
C	-5.1027	-1.6946	3.7447
C	-4.7512	-3.0501	3.6557
C	-3.8404	-3.5760	4.5842
C	-5.3026	-3.8942	2.5709
C	-5.3023	-3.4329	1.2429
C	-5.8006	-4.2287	0.2144
C	-6.3444	-5.4954	0.4843
C	-6.8850	-6.2868	-0.6287
C	-6.3527	-5.9582	1.8131
C	-5.8288	-5.1744	2.8351
C	-4.9656	0.5561	4.8300
C	-4.9748	1.3513	3.6705
C	-5.3103	2.7014	3.7358
C	-5.6784	3.2936	4.9556
C	-6.0332	4.7191	4.9764
C	-5.6845	2.4977	6.1164
C	-5.3214	1.1566	6.0548
C	6.7422	6.4865	-1.4713
C	6.1907	6.3570	-0.1990
C	6.0364	5.0897	0.3904
C	6.4705	3.9601	-0.3348
C	7.0150	4.0874	-1.6059
C	7.1526	5.3567	-2.1976
C	7.6773	5.5250	-3.5565
C	5.4048	4.9389	1.7204
C	5.8754	3.9915	2.6444
C	5.2687	3.8383	3.9019
C	4.1741	4.6560	4.2259
C	3.6774	5.6064	3.3205
C	4.3051	5.7375	2.0726
C	2.4844	6.4134	3.6625
C	1.4893	6.6836	2.6997
C	0.3538	7.4131	3.0261
C	0.1700	7.9033	4.3325
C	-1.0298	8.6576	4.7120
C	1.1610	7.6433	5.2934
C	2.2994	6.9117	4.9644
C	5.7337	2.8112	4.8617
C	5.7512	3.0686	6.2440
C	6.1221	2.0774	7.1501
C	6.4849	0.7945	6.7071
C	6.8116	-0.2428	7.6927
C	6.4905	0.5377	5.3230
C	6.1265	1.5296	4.4210
C	0.9104	4.1963	-6.7642
C	-0.3206	4.0040	-6.1508
C	-1.3996	3.4153	-6.8443
C	-1.1978	3.0334	-8.1823
C	0.0352	3.2303	-8.8005
C	1.1078	3.8106	-8.1034
C	2.4011	3.9799	-8.7748
C	-2.7008	3.1898	-6.1752
C	-3.4152	2.0005	-6.3888
C	-4.6269	1.7475	-5.7257
C	-5.1254	2.7169	-4.8389
C	-4.4359	3.9191	-4.6095
C	-3.2254	4.1401	-5.2860
C	-4.9518	4.9338	-3.6619
C	-5.5463	4.5494	-2.4417
C	-5.9704	5.4956	-1.5175
C	-5.8212	6.8701	-1.7823
C	-6.2054	7.8948	-0.8043
C	-5.2541	7.2591	-3.0077
C	-4.8270	6.3083	-3.9318
C	-5.3354	0.4642	-5.9378
C	-5.3806	-0.1380	-7.2079
C	-6.0042	-1.3704	-7.3914
C	-6.6029	-2.0451	-6.3142
C	-7.2019	-3.3672	-6.5358
C	-6.5742	-1.4394	-5.0439
C	-5.9536	-0.2097	-4.8630
H	3.6855	-2.4663	9.7958
H	5.0449	-2.6727	10.9238
H	5.1896	-1.5924	9.5286
H	3.3498	-4.4921	10.6974
H	2.9462	-6.0304	9.9248
H	4.1301	-7.8969	8.6090
H	4.1150	-7.5725	6.8654
H	2.9074	-6.8290	7.9011
H	7.6218	-7.0645	6.4292
H	6.2090	-7.9468	6.9210
H	8.1775	-5.1983	5.7831
H	8.2537	-3.5035	6.2646
H	9.0632	-4.7408	7.2472
H	7.2615	-1.9365	9.4510
H	8.4303	-2.7019	8.3698
H	-6.1470	-7.5004	-7.6594
H	-6.0083	-5.8026	-7.1788
H	-4.7056	-6.9214	-6.7937
H	-4.6490	-9.9557	-4.7733
H	-4.7954	-9.1056	-6.3171
H	-5.8801	-9.1716	-1.4572
H	-4.5973	-9.3578	-2.6424
H	-6.0052	-10.4312	-2.6995
H	-7.9973	-9.1212	-1.4154
H	-9.2077	-7.8955	-1.6286
H	-9.3677	-5.9217	-2.2038
H	-10.2397	-6.2574	-3.7090
H	-9.1690	-4.8463	-3.5872
H	-9.3169	-5.4015	-5.7673
H	-8.0934	-5.6306	-7.0216
H	5.6311	1.8882	-10.5349
H	4.2541	2.0534	-9.4327
H	5.3539	0.6965	-9.2513
H	4.5497	4.1573	-9.9914
H	4.8959	5.6507	-9.1132
H	6.3568	6.2928	-5.8674
H	6.5058	6.8086	-7.5544
H	4.9836	6.1131	-6.9522
H	9.5383	4.5365	-5.7340
H	8.4540	5.9251	-5.8768
H	10.1518	2.3945	-6.6349
H	9.1368	0.9948	-6.2506
H	9.1647	2.3801	-5.1593
H	7.4622	0.3884	-9.3413
H	8.7653	0.4425	-8.1951
H	-4.5009	8.6036	7.1334
H	-3.2021	7.8166	6.2210
H	-4.5713	6.8677	6.7788
H	-3.1321	10.6595	3.8952
H	-3.0363	9.8873	5.4810
H	-4.6116	9.6268	0.7597
H	-4.5438	11.0157	1.8555
H	-3.2382	9.8081	1.8451
H	-6.7186	9.7087	0.8069
H	-8.0728	8.7500	1.4144
H	-9.0604	7.6937	3.3219
H	-8.3843	6.1624	3.9003
H	-8.1797	6.6262	2.2104
H	-8.0218	6.7647	5.8287
H	-6.6995	7.1428	6.8899
H	5.9535	-2.8650	-7.0593
H	4.8657	-4.5705	-5.5981
H	4.5213	-1.6441	-2.4538
H	5.5704	0.0565	-3.9264
H	6.3821	0.7715	-6.0284
H	5.2068	-3.7923	-1.3327
H	2.2469	-6.8564	-0.7360
H	2.5987	-4.9117	-4.5671
H	0.3024	-5.0611	-4.2996
H	-1.7598	-6.2485	-5.0130
H	-2.6103	-9.7990	-3.9564
H	-0.4602	-9.7643	-2.9019
H	1.6094	-8.5982	-2.2077
H	4.2316	-3.4046	0.9428
H	4.9671	-3.6708	3.2974
H	5.4799	-4.9967	5.1780
H	5.1198	-7.9385	2.7895
H	4.3438	-7.6812	0.4312
H	0.8446	-2.3981	7.7572
H	-1.0203	-1.4869	6.3882
H	-3.1036	-5.2469	6.7294
H	-1.2301	-6.1540	8.0693
H	0.9328	-5.9828	9.0394
H	-3.2369	-0.7817	6.4396
H	-5.8313	-1.2846	3.0439
H	-3.5100	-4.6100	4.4758
H	-4.8748	-2.4547	1.0172
H	-5.7714	-3.8682	-0.8165
H	-6.6368	-5.9111	-1.6386
H	-6.7807	-6.9394	2.0200
H	-5.8455	-5.5395	3.8636
H	-4.6794	0.9100	2.7174
H	-5.2847	3.3131	2.8311
H	-5.7943	5.2763	4.0517
H	-5.9775	2.9569	7.0608
H	-5.3330	0.5485	6.9610
H	6.8561	7.4787	-1.9140
H	5.8921	7.2480	0.3548
H	6.3388	2.9669	0.0974
H	7.3260	3.2112	-2.1755
H	7.7251	6.5727	-3.9203
H	6.7538	3.3935	2.3978
H	3.6546	4.4993	5.1717
H	3.9231	6.4658	1.3564
H	1.5993	6.2811	1.6916
H	-0.4237	7.6026	2.2856
H	-1.0799	8.9694	5.7762
H	1.0371	8.0257	6.3092
H	3.0675	6.7387	5.7195
H	5.4837	4.0613	6.6089
H	6.1275	2.2965	8.2203
H	6.7662	0.0805	8.7539
H	6.7647	-0.4605	4.9803
H	6.1003	1.3026	3.3541
H	1.7483	4.6311	-6.2187
H	-0.4483	4.2795	-5.1028
H	-2.0235	2.5990	-8.7476
H	0.1716	2.9329	-9.8429
H	2.4448	3.6151	-9.8223
H	-2.9859	1.2288	-7.0286
H	-6.0873	2.5513	-4.3518
H	-2.6738	5.0636	-5.1059
H	-5.6353	3.4881	-2.2039
H	-6.4034	5.1940	-0.5633
H	-6.0225	8.9434	-1.1194
H	-5.1452	8.3221	-3.2350
H	-4.4015	6.6327	-4.8824
H	-4.9370	0.3751	-8.0622
H	-6.0285	-1.8216	-8.3860
H	-7.1479	-3.7399	-7.5802
H	-7.0287	-1.9675	-4.2052
H	-5.9094	0.2280	-3.8646
