324

C	2.4064	5.6710	-12.5686
C	1.0481	5.0727	-12.8698
C	-0.1259	5.8248	-12.6465
C	-1.3930	5.2320	-12.8256
C	-1.4857	3.9084	-13.3058
C	-0.3169	3.1541	-13.5379
C	0.9466	3.7498	-13.3466
C	2.2051	2.9518	-13.6602
N	2.5550	2.0672	-12.5502
C	-0.4053	1.7026	-13.9588
C	-2.8487	3.2902	-13.5516
N	-3.4964	2.5640	-12.4516
C	-2.6510	6.0013	-12.4768
C	-0.0305	7.2724	-12.2031
N	0.0171	7.5684	-10.7671
C	2.1662	-13.4398	1.6302
C	0.8592	-13.4803	0.8670
C	-0.3730	-13.5170	1.5511
C	-1.5864	-13.4693	0.8318
C	-1.5653	-13.4508	-0.5782
C	-0.3344	-13.4094	-1.2684
C	0.8723	-13.4604	-0.5427
C	2.2039	-13.5082	-1.2773
N	2.8059	-12.1808	-1.3624
C	-0.3103	-13.2853	-2.7778
C	-2.8695	-13.4847	-1.3542
N	-3.5064	-12.2177	-1.7302
C	-2.9071	-13.4204	1.5726
C	-0.3964	-13.6174	3.0650
N	-0.3898	-12.3824	3.8572
C	12.1078	5.4798	3.7858
C	11.6955	4.7650	5.0563
C	12.1094	3.4347	5.2838
C	11.6559	2.7361	6.4211
C	10.8419	3.3953	7.3650
C	10.4248	4.7233	7.1462
C	10.8828	5.4185	6.0059
C	10.4995	6.8726	5.8009
N	9.2474	7.1824	5.1002
C	9.4740	5.3907	8.1179
C	10.4246	2.6640	8.6318
N	9.2544	1.8230	8.3921
C	12.0095	1.2790	6.6281
C	13.0467	2.7588	4.3004
N	12.4733	2.0184	3.1704
C	-11.8284	6.4450	4.0159
C	-11.4176	5.8047	5.3259
C	-11.8445	4.4974	5.6401
C	-11.3893	3.8657	6.8180
C	-10.5625	4.5758	7.7116
C	-10.1333	5.8840	7.4042
C	-10.5898	6.5091	6.2259
C	-10.1877	7.9402	5.9206
N	-8.9511	8.1796	5.1655
C	-9.1660	6.5920	8.3284
C	-10.1320	3.9374	9.0249
N	-8.7958	3.3550	8.9147
C	-11.7664	2.4263	7.1028
C	-12.8000	3.7732	4.7092
N	-12.2496	2.9538	3.6237
C	3.8933	-9.9586	-4.0671
C	4.4161	-8.6944	-4.3129
C	4.7493	-7.8412	-3.2381
C	5.2523	-6.5408	-3.4781
C	5.6552	-5.4072	-3.6835
C	6.1031	-4.0806	-3.9078
C	5.7903	-3.4168	-5.1094
C	6.2164	-2.0926	-5.3253
C	5.8606	-1.4080	-6.5160
C	5.5223	-0.7939	-7.5153
C	5.0900	-0.0691	-8.6524
C	5.8801	0.9645	-9.2002
C	5.4271	1.6826	-10.3016
C	4.1768	1.4059	-10.8835
C	3.7148	2.2068	-12.0222
C	3.3904	0.3706	-10.3400
C	3.8385	-0.3584	-9.2499
C	6.9695	-1.4359	-4.3315
C	7.2790	-2.0851	-3.1222
C	7.9981	-1.4045	-2.1012
C	8.5850	-0.8228	-1.2037
C	9.2466	-0.1392	-0.1495
C	8.5001	0.5187	0.8513
C	9.1490	1.1881	1.8834
C	10.5522	1.2236	1.9514
C	11.1986	1.9445	3.0551
C	11.2975	0.5665	0.9535
C	10.6595	-0.1037	-0.0801
C	6.8447	-3.4080	-2.9167
C	4.5522	-8.3038	-1.9134
C	4.0214	-9.5620	-1.6790
C	3.6784	-10.4082	-2.7523
C	3.0931	-11.7326	-2.5284
C	-8.9599	2.0979	2.2634
C	-8.3303	1.3699	1.2595
C	-9.0943	0.6211	0.3386
C	-8.4447	-0.1237	-0.6812
C	-7.8426	-0.7482	-1.5397
C	-7.0973	-1.4718	-2.5129
C	-6.6958	-0.8505	-3.7103
C	-5.9137	-1.5479	-4.6508
C	-5.4666	-0.8926	-5.8320
C	-5.0502	-0.3082	-6.8192
C	-4.5284	0.3823	-7.9451
C	-3.2639	1.0049	-7.8731
C	-2.7517	1.6796	-8.9764
C	-3.4741	1.7542	-10.1803
C	-2.8932	2.4694	-11.3241
C	-4.7360	1.1341	-10.2515
C	-5.2559	0.4597	-9.1563
C	-5.5410	-2.8802	-4.3911
C	-5.9351	-3.5124	-3.1966
C	-5.5091	-4.8414	-2.9160
C	-5.1041	-5.9636	-2.6581
C	-4.5904	-7.2504	-2.3421
C	-5.2596	-8.4293	-2.7494
C	-4.7424	-9.6806	-2.4425
C	-3.5391	-9.8045	-1.7207
C	-2.9575	-11.1115	-1.3854
C	-2.8765	-8.6338	-1.3121
C	-3.3874	-7.3752	-1.6143
C	-6.7168	-2.8047	-2.2644
C	-10.5042	0.6298	0.4597
C	-11.1227	1.3604	1.4645
C	-10.3603	2.1064	2.3847
C	-10.9798	2.8942	3.4591
C	-6.4850	8.5781	3.6577
C	-5.2993	8.6732	2.9415
C	-4.5910	7.5086	2.5621
C	-3.3699	7.5843	1.8401
C	-2.3136	7.5855	1.2287
C	-1.0862	7.5322	0.5101
C	-1.0877	7.5370	-0.8977
C	0.1187	7.4229	-1.6143
C	0.1034	7.3767	-3.0367
C	0.0823	7.2990	-4.2546
C	0.0566	7.1488	-5.6673
C	-0.0642	5.8630	-6.2361
C	-0.0869	5.7064	-7.6179
C	0.0063	6.8165	-8.4747
C	-0.0294	6.6012	-9.9268
C	0.1258	8.1005	-7.9083
C	0.1513	8.2671	-6.5304
C	1.3341	7.3155	-0.9112
C	1.3495	7.3166	0.4972
C	2.5770	7.1796	1.2049
C	3.6254	7.0386	1.8139
C	4.8454	6.8470	2.5166
C	5.3727	5.5501	2.6947
C	6.5685	5.3670	3.3820
C	7.2774	6.4606	3.9102
C	8.5383	6.2247	4.6264
C	6.7515	7.7548	3.7321
C	5.5582	7.9475	3.0509
C	0.1357	7.4278	1.2015
C	-5.1167	6.2486	2.9206
C	-6.3041	6.1637	3.6388
C	-7.0063	7.3206	4.0194
C	-8.2520	7.1753	4.7829
C	-6.1938	2.0736	8.7431
C	-4.9986	1.3805	8.6333
C	-4.9518	-0.0199	8.8454
C	-3.7350	-0.7261	8.6751
C	-2.6822	-1.3130	8.4793
C	-1.4618	-1.9811	8.1923
C	-1.4768	-3.2629	7.6063
C	-0.2744	-3.9054	7.2556
C	-0.2997	-5.1769	6.6174
C	-0.3196	-6.2546	6.0454
C	-0.3360	-7.5003	5.3623
C	-0.3019	-7.5430	3.9518
C	-0.3131	-8.7655	3.2865
C	-0.3552	-9.9776	3.9970
C	-0.3622	-11.2487	3.2596
C	-0.3905	-9.9343	5.4043
C	-0.3812	-8.7209	6.0775
C	0.9523	-3.2665	7.5148
C	0.9828	-1.9915	8.1148
C	2.2224	-1.3450	8.3510
C	3.2896	-0.7785	8.5241
C	4.5227	-0.1047	8.6902
C	5.6521	-0.4680	7.9155
C	6.8516	0.2135	8.0506
C	6.9728	1.2735	8.9710
C	8.2209	2.0258	9.1229
C	5.8572	1.6259	9.7506
C	4.6469	0.9555	9.6143
C	-0.2276	-1.3544	8.4504
C	-6.1439	-0.6914	9.1945
C	-7.3362	0.0151	9.3156
C	-7.3839	1.4011	9.0833
C	-8.6644	2.1089	9.1835
H	3.0719	4.9309	-12.1084
H	2.9075	6.0409	-13.4778
H	2.3370	6.5079	-11.8658
H	2.0128	2.3157	-14.5385
H	3.0364	3.6258	-13.9356
H	-1.3506	1.2441	-13.6482
H	0.4022	1.1168	-13.5036
H	-0.3276	1.5895	-15.0530
H	-3.5661	4.0598	-13.8762
H	-2.8051	2.5895	-14.3999
H	-3.4448	5.3336	-12.1216
H	-3.0494	6.5528	-13.3444
H	-2.4714	6.7311	-11.6789
H	0.8546	7.7533	-12.6477
H	-0.8767	7.8497	-12.6071
H	2.0391	-13.0218	2.6349
H	2.9001	-12.8127	1.1098
H	2.6040	-14.4455	1.7442
H	2.0845	-13.9778	-2.2709
H	2.8988	-14.1479	-0.7107
H	-0.1603	-14.2592	-3.2711
H	0.5000	-12.6244	-3.1078
H	-1.2407	-12.8576	-3.1666
H	-2.7423	-14.0541	-2.2885
H	-3.6286	-14.0557	-0.7973
H	-3.3069	-14.4294	1.7661
H	-3.6676	-12.8698	1.0064
H	-2.8080	-12.9163	2.5413
H	-1.2767	-14.1894	3.3965
H	0.4587	-14.2137	3.4199
H	12.2432	4.7787	2.9539
H	13.0560	6.0278	3.9119
H	11.3503	6.2056	3.4666
H	11.2953	7.4038	5.2559
H	10.4477	7.3937	6.7697
H	8.7105	4.6872	8.4706
H	8.9386	6.2272	7.6566
H	9.9969	5.7795	9.0066
H	10.2626	3.3790	9.4592
H	11.2460	2.0016	8.9474
H	12.2421	0.7772	5.6821
H	11.1713	0.7374	7.0828
H	12.8846	1.1597	7.2884
H	13.7076	2.0526	4.8267
H	13.7379	3.4969	3.8642
H	-11.9916	5.6962	3.2322
H	-11.0570	7.1293	3.6432
H	-12.7606	7.0247	4.1170
H	-10.9895	8.4524	5.3665
H	-10.0956	8.5177	6.8537
H	-9.6880	7.0929	9.1606
H	-8.5823	7.3547	7.8011
H	-8.4521	5.8809	8.7612
H	-10.8824	3.2000	9.3639
H	-10.0866	4.7173	9.8010
H	-10.9354	1.8816	7.5660
H	-12.6285	2.3514	7.7853
H	-12.0224	1.8844	6.1858
H	-13.4697	3.1151	5.2841
H	-13.4824	4.4938	4.2315
H	3.6359	-10.6096	-4.9056
H	4.5698	-8.3472	-5.3345
H	5.2056	-3.9276	-5.8727
H	6.8461	1.1925	-8.7497
H	6.0466	2.4808	-10.7170
H	4.4378	2.9592	-12.3996
H	2.4217	0.1601	-10.7940
H	3.2266	-1.1576	-8.8313
H	7.2967	-0.4099	-4.4926
H	7.4114	0.4962	0.8036
H	8.5633	1.6942	2.6541
H	10.5130	2.4205	3.7808
H	12.3857	0.5982	1.0132
H	11.2396	-0.6110	-0.8512
H	7.0793	-3.9139	-1.9815
H	4.8136	-7.6501	-1.0811
H	3.8548	-9.9193	-0.6624
H	2.9034	-12.3315	-3.4431
H	-8.3589	2.6740	2.9708
H	-7.2439	1.3695	1.1734
H	-6.9775	0.1835	-3.9035
H	-2.6964	0.9511	-6.9441
H	-1.7714	2.1574	-8.9113
H	-1.8968	2.9167	-11.1494
H	-5.2924	1.1953	-11.1872
H	-6.2335	-0.0195	-9.2165
H	-4.9281	-3.4201	-5.1113
H	-6.1902	-8.3410	-3.3105
H	-5.2559	-10.5898	-2.7566
H	-2.0111	-11.0785	-0.8134
H	-1.9428	-8.7165	-0.7509
H	-2.8634	-6.4744	-1.2949
H	-7.0160	-3.2864	-1.3348
H	-11.0991	0.0537	-0.2494
H	-12.2087	1.3711	1.5610
H	-10.2756	3.4363	4.1181
H	-7.0328	9.4729	3.9545
H	-4.8983	9.6489	2.6660
H	-2.0310	7.6109	-1.4366
H	-0.1388	4.9963	-5.5796
H	-0.1806	4.7061	-8.0471
H	-0.1039	5.5454	-10.2487
H	0.1965	8.9588	-8.5769
H	0.2445	9.2629	-6.0966
H	2.2691	7.2195	-1.4612
H	4.8320	4.6958	2.2879
H	6.9662	4.3581	3.5144
H	8.8364	5.1644	4.7309
H	7.3041	8.6006	4.1421
H	5.1560	8.9519	2.9168
H	0.1406	7.4181	2.2905
H	-4.5780	5.3464	2.6314
H	-6.7002	5.1837	3.9153
H	-8.5492	6.1337	5.0080
H	-6.2362	3.1483	8.5648
H	-4.0801	1.9038	8.3662
H	-2.4285	-3.7502	7.4000
H	-0.2679	-6.6085	3.3920
H	-0.2857	-8.7863	2.1945
H	-0.3403	-11.1634	2.1570
H	-0.4239	-10.8770	5.9512
H	-0.4081	-8.6943	7.1670
H	1.8853	-3.7574	7.2426
H	5.5607	-1.2880	7.2030
H	7.7196	-0.0548	7.4479
H	8.2157	2.8011	9.9168
H	5.9425	2.4450	10.4681
H	3.7845	1.2412	10.2163
H	-0.2091	-0.3630	8.9008
H	-6.1191	-1.7679	9.3631
H	-8.2524	-0.5153	9.5846
H	-9.5281	1.4895	9.5027
