420

C	6.6223	-14.0594	1.1998
C	5.7220	-14.2274	2.4060
C	6.1482	-13.7842	3.6745
C	5.2819	-13.8549	4.7846
C	3.9970	-14.4170	4.6323
C	3.5599	-14.8562	3.3639
C	4.4385	-14.7990	2.2622
C	3.9922	-15.3173	0.9079
N	3.3924	-14.3669	-0.0376
C	2.1409	-15.3543	3.1786
C	3.0680	-14.5037	5.8275
N	2.1983	-13.3530	6.1101
C	5.7298	-13.2977	6.1196
C	7.5472	-13.2103	3.8526
N	7.5084	-11.7495	3.8704
C	-14.6129	0.6760	-6.0866
C	-15.0004	0.0804	-4.7487
C	-15.3073	0.9267	-3.6617
C	-15.5733	0.3799	-2.3892
C	-15.5883	-1.0217	-2.2188
C	-15.2833	-1.8710	-3.3021
C	-15.0285	-1.3179	-4.5754
C	-14.7567	-2.2395	-5.7477
N	-13.3739	-2.6700	-5.9892
C	-15.2009	-3.3692	-3.0968
C	-15.9062	-1.6196	-0.8614
N	-14.7979	-1.8704	0.0706
C	-15.8062	1.2912	-1.2023
C	-15.3126	2.4284	-3.8705
N	-14.0431	3.1522	-3.7184
C	3.0111	6.9304	13.8597
C	2.5281	8.1343	13.0763
C	1.1606	8.4811	13.0827
C	0.6947	9.5398	12.2755
C	1.6115	10.2844	11.5059
C	2.9805	9.9491	11.4982
C	3.4416	8.8935	12.3144
C	4.9193	8.5548	12.3589
N	5.4600	7.6315	11.3538
C	3.9430	10.6958	10.5967
C	1.1042	11.4452	10.6628
N	0.4883	10.9502	9.4341
C	-0.7816	9.8655	12.2066
C	0.1816	7.6918	13.9318
N	-0.4545	6.5061	13.3396
C	9.5149	2.8313	-12.2978
C	8.6834	4.0958	-12.3172
C	7.4862	4.1609	-13.0590
C	6.6834	5.3217	-13.0111
C	7.1171	6.4443	-12.2762
C	8.3049	6.3777	-11.5147
C	9.0981	5.2135	-11.5622
C	10.4121	5.1523	-10.7934
N	10.2509	4.3983	-9.5507
C	8.7064	7.5386	-10.6279
C	6.3010	7.7246	-12.2965
N	5.2880	7.9352	-11.2537
C	5.3488	5.3500	-13.7277
C	7.0338	2.9812	-13.8988
N	6.1267	1.9975	-13.2914
C	-11.1958	-1.2280	0.2296
C	-10.0793	-1.3902	1.0462
C	-10.1814	-2.0569	2.2811
C	-11.4446	-2.5552	2.6647
C	-12.5601	-2.3844	1.8556
C	-12.4537	-1.7154	0.6217
C	-13.6116	-1.5126	-0.2575
C	-8.9969	-2.2282	3.1487
C	-8.7632	-3.4312	3.8406
C	-7.6308	-3.5970	4.6344
C	-6.6905	-2.5615	4.7829
C	-6.9334	-1.3520	4.1067
C	-8.0585	-1.1912	3.3024
C	-5.4665	-2.7371	5.5998
C	-4.7355	-3.9341	5.5420
C	-3.5428	-4.0951	6.2658
C	-3.0909	-3.0339	7.0659
C	-3.8005	-1.8250	7.1449
C	-4.9891	-1.6940	6.4095
C	-3.2797	-0.6920	7.9459
C	-4.1316	0.1303	8.7054
C	-3.6328	1.2172	9.4216
C	-2.2617	1.5335	9.4037
C	-1.4088	0.7007	8.6550
C	-1.9059	-0.3877	7.9447
C	-1.7286	2.7109	10.1240
C	-2.2073	3.0751	11.4012
C	-1.6981	4.1811	12.0719
C	-0.6932	4.9733	11.4850
C	-0.1240	6.1510	12.1525
C	-0.2177	4.6183	10.2115
C	-0.7218	3.5049	9.5444
C	-2.7469	-5.3397	6.1542
C	-2.1146	-5.9099	7.2741
C	-1.3350	-7.0578	7.1524
C	-1.1454	-7.6817	5.9052
C	-1.7873	-7.1162	4.7876
C	-2.5739	-5.9743	4.9107
C	-0.2917	-8.8807	5.7653
C	-0.2809	-9.8920	6.7496
C	0.5168	-11.0211	6.6121
C	1.3458	-11.1805	5.4859
C	2.2001	-12.3597	5.2994
C	1.3450	-10.1727	4.5070
C	0.5390	-9.0452	4.6412
C	4.2392	0.1532	-12.0620
C	3.3790	-0.7064	-11.3902
C	3.1949	-0.6141	-9.9940
C	3.9046	0.3839	-9.3004
C	4.7605	1.2524	-9.9750
C	4.9462	1.1501	-11.3641
C	5.8539	2.0862	-12.0417
C	2.2838	-1.5352	-9.2795
C	1.0579	-1.9365	-9.8432
C	0.1875	-2.7788	-9.1542
C	0.5106	-3.2670	-7.8754
C	1.7453	-2.8836	-7.3207
C	2.6097	-2.0332	-8.0045
C	-0.4208	-4.1301	-7.1123
C	0.0610	-5.2146	-6.3618
C	-0.7993	-5.9984	-5.5769
C	-2.1681	-5.6885	-5.5641
C	-2.6803	-4.6124	-6.3057
C	-1.7952	-3.8447	-7.0794
C	-4.1176	-4.2627	-6.2229
C	-5.1149	-5.2544	-6.2015
C	-6.4609	-4.9170	-6.0818
C	-6.8660	-3.5743	-5.9626
C	-5.8686	-2.5824	-5.9934
C	-4.5245	-2.9196	-6.1273
C	-8.2906	-3.2182	-5.7960
C	-8.6800	-2.1896	-4.9183
C	-10.0237	-1.8618	-4.7555
C	-11.0227	-2.5397	-5.4736
C	-12.4282	-2.1618	-5.2881
C	-10.6385	-3.5681	-6.3540
C	-9.2996	-3.9028	-6.5060
C	-0.2613	-7.0930	-4.7360
C	0.7523	-7.9489	-5.2034
C	1.2808	-8.9477	-4.3891
C	0.8260	-9.1268	-3.0688
C	-0.1943	-8.2756	-2.6062
C	-0.7301	-7.2847	-3.4239
C	1.4086	-10.1676	-2.1950
C	1.6522	-9.9176	-0.8317
C	2.2168	-10.8967	-0.0171
C	2.5463	-12.1624	-0.5311
C	3.1446	-13.1709	0.3526
C	2.2981	-12.4190	-1.8923
C	1.7454	-11.4394	-2.7066
C	10.2498	5.1939	-5.9777
C	10.0207	4.6406	-4.7196
C	9.8180	3.2572	-4.5677
C	9.8636	2.4482	-5.7230
C	10.0667	3.0017	-6.9812
C	10.2575	4.3884	-7.1292
C	10.4362	5.0174	-8.4444
C	9.5371	2.6734	-3.2383
C	10.1287	1.4663	-2.8232
C	9.8414	0.9149	-1.5771
C	8.9347	1.5324	-0.6941
C	8.3452	2.7410	-1.1134
C	8.6461	3.3036	-2.3506
C	8.5891	0.9278	0.6151
C	8.6194	-0.4657	0.7988
C	8.2639	-1.0513	2.0245
C	7.8625	-0.2190	3.0809
C	7.8153	1.1751	2.9286
C	8.1911	1.7326	1.6965
C	7.3716	2.0410	4.0454
C	6.5070	3.1272	3.8167
C	6.0714	3.9339	4.8646
C	6.4917	3.6976	6.1870
C	7.3623	2.6158	6.4139
C	7.7865	1.8005	5.3672
C	6.0313	4.5617	7.2956
C	4.7047	5.0275	7.3437
C	4.2771	5.8583	8.3770
C	5.1601	6.2604	9.3930
C	4.6838	7.1678	10.4446
C	6.4860	5.7887	9.3554
C	6.9092	4.9533	8.3293
C	8.2691	-2.5238	2.1868
C	7.2191	-3.1838	2.8501
C	7.2134	-4.5694	2.9876
C	8.2625	-5.3602	2.4795
C	9.3181	-4.6948	1.8261
C	9.3186	-3.3102	1.6777
C	8.2475	-6.8326	2.6173
C	8.8545	-7.6591	1.6524
C	8.8346	-9.0452	1.7823
C	8.1937	-9.6587	2.8717
C	8.1693	-11.1222	2.9695
C	7.5829	-8.8397	3.8399
C	7.6175	-7.4577	3.7167
C	3.7960	6.0278	-8.5072
C	2.8427	6.1098	-7.4955
C	2.1173	7.2966	-7.2829
C	2.3870	8.3990	-8.1217
C	3.3313	8.3148	-9.1371
C	4.0528	7.1244	-9.3466
C	5.0554	6.9964	-10.4121
C	1.0999	7.3751	-6.2128
C	0.2538	6.2825	-5.9463
C	-0.6917	6.3357	-4.9265
C	-0.8264	7.4805	-4.1207
C	0.0091	8.5791	-4.3942
C	0.9473	8.5302	-5.4232
C	-1.7925	7.4993	-2.9981
C	-3.0609	6.9108	-3.1281
C	-3.9509	6.8427	-2.0437
C	-3.5475	7.3727	-0.8065
C	-2.2915	7.9812	-0.6511
C	-1.4298	8.0469	-1.7572
C	-1.8589	8.5131	0.6623
C	-1.1969	9.7498	0.7692
C	-0.7614	10.2299	2.0023
C	-0.9547	9.4895	3.1846
C	-1.6189	8.2522	3.0730
C	-2.0672	7.7788	1.8431
C	-0.4754	9.9819	4.4945
C	-1.1535	9.6501	5.6890
C	-0.6949	10.0839	6.9253
C	0.4601	10.8827	7.0202
C	0.9806	11.3353	8.3154
C	1.1288	11.2348	5.8360
C	0.6748	10.7866	4.5977
C	-5.2876	6.2234	-2.2089
C	-5.8327	5.3849	-1.2190
C	-7.0811	4.7891	-1.3868
C	-7.8471	5.0145	-2.5460
C	-7.3056	5.8614	-3.5312
C	-6.0524	6.4471	-3.3686
C	-9.1725	4.3823	-2.7280
C	-10.2404	5.0946	-3.3154
C	-11.4866	4.5084	-3.4934
C	-11.7136	3.1773	-3.0972
C	-13.0154	2.5242	-3.2787
C	-10.6539	2.4615	-2.5159
C	-9.4069	3.0538	-2.3275
H	7.1234	-13.0837	1.2148
H	6.0635	-14.1077	0.2598
H	7.4093	-14.8297	1.1607
H	4.8371	-15.7874	0.3814
H	3.2648	-16.1351	1.0281
H	2.0638	-16.4436	3.3285
H	1.7643	-15.1347	2.1725
H	1.4506	-14.8772	3.8839
H	2.4034	-15.3773	5.7390
H	3.6416	-14.6938	6.7472
H	4.8803	-12.9839	6.7366
H	6.3672	-12.4172	5.9784
H	6.3020	-14.0416	6.6985
H	8.2333	-13.6014	3.0802
H	7.9469	-13.5405	4.8245
H	-13.9471	0.0110	-6.6485
H	-14.0814	1.6273	-5.9650
H	-15.4945	0.8707	-6.7189
H	-15.3544	-3.1591	-5.6542
H	-15.1084	-1.7840	-6.6868
H	-14.4741	-3.8301	-3.7757
H	-16.1725	-3.8601	-3.2713
H	-14.8854	-3.6202	-2.0775
H	-16.6250	-0.9845	-0.3203
H	-16.4318	-2.5792	-0.9807
H	-15.4590	0.8346	-0.2679
H	-15.2676	2.2403	-1.3088
H	-16.8742	1.5317	-1.0737
H	-16.0297	2.9138	-3.1902
H	-15.6871	2.6717	-4.8765
H	2.2226	6.1776	13.9720
H	3.3495	7.2071	14.8716
H	3.8509	6.4349	13.3578
H	5.1855	8.1330	13.3401
H	5.5251	9.4724	12.2916
H	4.8732	10.1408	10.4384
H	4.2090	11.6839	11.0048
H	3.5052	10.8619	9.6043
H	1.9117	12.1720	10.4634
H	0.3272	11.9846	11.2274
H	-1.4022	8.9904	12.4303
H	-1.0567	10.6574	12.9230
H	-1.0581	10.2068	11.2026
H	-0.6355	8.3414	14.2799
H	0.6666	7.3494	14.8595
H	10.3218	2.8644	-13.0486
H	8.9097	1.9416	-12.5066
H	9.9755	2.6840	-11.3141
H	11.1586	4.6223	-11.4057
H	10.8096	6.1674	-10.6172
H	9.0714	7.1843	-9.6562
H	7.8638	8.2057	-10.4195
H	9.5096	8.1453	-11.0764
H	6.9675	8.6003	-12.2620
H	5.7768	7.8270	-13.2596
H	4.6327	6.0083	-13.2217
H	4.8916	4.3546	-13.7660
H	5.4478	5.7070	-14.7661
H	6.5315	3.3374	-14.8115
H	7.9011	2.4153	-14.2727
H	-11.0957	-0.7213	-0.7335
H	-9.1071	-1.0239	0.7136
H	-11.5487	-3.0564	3.6283
H	-13.5383	-2.7558	2.1622
H	-13.3916	-1.0240	-1.2259
H	-9.4677	-4.2573	3.7321
H	-7.4768	-4.5408	5.1602
H	-6.2144	-0.5361	4.1936
H	-8.2242	-0.2393	2.7956
H	-5.0915	-4.7480	4.9091
H	-2.1608	-3.1454	7.6245
H	-5.5437	-0.7557	6.4544
H	-5.1997	-0.0909	8.7408
H	-4.3214	1.8488	9.9849
H	-0.3373	0.9059	8.6399
H	-1.2218	-1.0005	7.3558
H	-2.9708	2.4594	11.8794
H	-2.0600	4.4510	13.0645
H	0.6199	6.7134	11.5578
H	0.5559	5.2295	9.7405
H	-0.3536	3.2608	8.5470
H	-2.2447	-5.4510	8.2554
H	-0.8415	-7.4652	8.0362
H	-1.6799	-7.5896	3.8107
H	-3.0432	-5.5485	4.0224
H	-0.9342	-9.7976	7.6184
H	0.5101	-11.8078	7.3672
H	2.8447	-12.3360	4.4012
H	1.9946	-10.2754	3.6343
H	0.5733	-8.2639	3.8806
H	4.3877	0.0687	-13.1390
H	2.8571	-1.4871	-11.9461
H	3.7600	0.4964	-8.2251
H	5.2939	2.0281	-9.4203
H	6.2837	2.8781	-11.3998
H	0.7707	-1.5591	-10.8259
H	-0.7558	-3.0722	-9.6180
H	2.0179	-3.2371	-6.3251
H	3.5627	-1.7597	-7.5491
H	1.1286	-5.4378	-6.3703
H	-2.8451	-6.2828	-4.9492
H	-2.1783	-2.9974	-7.6497
H	-4.8301	-6.3039	-6.2912
H	-7.2111	-5.7085	-6.0496
H	-6.1544	-1.5317	-5.9259
H	-3.7713	-2.1302	-6.1291
H	-7.9208	-1.6642	-4.3374
H	-10.3085	-1.0668	-4.0618
H	-12.6180	-1.4065	-4.5020
H	-11.4149	-4.0877	-6.9161
H	-9.0171	-4.6885	-7.2086
H	1.1232	-7.8346	-6.2233
H	2.0793	-9.5849	-4.7722
H	-0.5817	-8.4039	-1.5943
H	-1.5062	-6.6262	-3.0307
H	1.4271	-8.9336	-0.4180
H	2.4158	-10.6787	1.0348
H	3.3722	-12.8277	1.3793
H	2.5456	-13.4043	-2.2885
H	1.5422	-11.6622	-3.7552
H	10.4156	6.2695	-6.0742
H	10.0205	5.2822	-3.8372
H	9.6954	1.3743	-5.6264
H	10.0681	2.3767	-7.8745
H	10.7282	6.0878	-8.4203
H	10.8500	0.9716	-3.4759
H	10.3509	-0.0004	-1.2733
H	7.6059	3.2290	-0.4776
H	8.1450	4.2227	-2.6580
H	8.8639	-1.1152	-0.0422
H	7.5726	-0.6644	4.0335
H	8.2108	2.8182	1.5962
H	6.1567	3.3275	2.8028
H	5.4105	4.7763	4.6544
H	7.6944	2.3993	7.4304
H	8.4679	0.9733	5.5727
H	3.9979	4.7156	6.5736
H	3.2420	6.2076	8.3993
H	3.6119	7.4365	10.3923
H	7.1731	6.1063	10.1402
H	7.9479	4.6195	8.3003
H	6.3747	-2.6038	3.2256
H	6.3576	-5.0499	3.4633
H	10.1702	-5.2671	1.4575
H	10.1645	-2.8223	1.1907
H	9.3219	-7.2116	0.7748
H	9.3063	-9.6671	1.0179
H	8.7636	-11.6614	2.2029
H	7.0947	-9.3149	4.6911
H	7.1697	-6.8428	4.4982
H	4.3554	5.1005	-8.6523
H	2.6731	5.2525	-6.8427
H	1.8194	9.3215	-7.9886
H	3.5250	9.1622	-9.7955
H	5.5968	6.0321	-10.4420
H	0.3315	5.3831	-6.5588
H	-1.3181	5.4645	-4.7295
H	-0.0862	9.4870	-3.7963
H	1.5935	9.3911	-5.6013
H	-3.3563	6.4852	-4.0880
H	-4.2401	7.3551	0.0364
H	-0.4296	8.4626	-1.6277
H	-1.0512	10.3566	-0.1259
H	-0.2904	11.2125	2.0525
H	-1.7534	7.6315	3.9597
H	-2.5480	6.8009	1.7863
H	-2.0697	9.0606	5.6387
H	-1.2227	9.8205	7.8423
H	1.8427	12.0326	8.2675
H	2.0300	11.8499	5.8912
H	1.2390	11.0389	3.6990
H	-5.2589	5.1820	-0.3132
H	-7.4812	4.1528	-0.5958
H	-7.8670	6.0452	-4.4485
H	-5.6637	7.1053	-4.1471
H	-10.0882	6.1341	-3.6096
H	-12.3121	5.0670	-3.9353
H	-13.0507	1.4509	-3.0117
H	-10.8137	1.4246	-2.2095
H	-8.5919	2.4727	-1.8936
