144

C	-2.3880	-2.0237	4.5471
C	-3.2404	-1.6100	3.3660
C	-3.5374	-2.5390	2.3469
C	-4.2694	-2.1360	1.2105
C	-4.7659	-0.8176	1.1289
C	-4.4702	0.1158	2.1444
C	-3.7371	-0.2926	3.2782
C	-3.5120	0.6758	4.4242
N	-2.3087	1.5127	4.4260
C	-4.9318	1.5529	2.0155
C	-5.6542	-0.4137	-0.0335
N	-5.0446	0.1371	-1.2476
C	-4.5185	-3.1127	0.0806
C	-3.1159	-3.9897	2.5032
N	-1.8114	-4.4250	1.9987
C	2.9757	3.9087	-2.4149
C	3.5286	2.5006	-2.3401
C	4.3016	2.1038	-1.2287
C	4.7577	0.7738	-1.1191
C	4.4957	-0.1426	-2.1586
C	3.7226	0.2478	-3.2725
C	3.2718	1.5804	-3.3781
C	2.5430	2.0396	-4.6283
N	1.0808	1.9657	-4.6769
C	3.3723	-0.7623	-4.3449
C	5.0759	-1.5427	-2.0913
N	4.3005	-2.6057	-1.4462
C	5.5194	0.3288	0.1119
C	4.6825	3.1236	-0.1724
N	3.8052	3.3295	0.9808
C	-1.7067	0.9106	-2.5455
C	-3.1064	0.8012	-2.5187
C	-3.7725	0.2608	-1.3199
C	-3.8463	1.2075	-3.6376
C	-3.1978	1.7184	-4.7782
C	-3.9562	2.1338	-5.9087
C	-4.6111	2.4934	-6.8796
Si	-5.5868	3.0338	-8.3371
C	-5.0020	4.7459	-8.8369
C	-5.2986	1.8114	-9.7317
C	-7.4008	3.0666	-7.8584
C	-1.7929	1.8168	-4.7875
C	-1.0415	1.4172	-3.6735
C	0.4301	1.5154	-3.6705
C	1.0696	-3.0299	0.2199
C	0.2650	-3.9861	0.8589
C	-1.0499	-3.5917	1.3955
C	0.7289	-5.3043	0.9733
C	1.9872	-5.6699	0.4573
C	2.4476	-7.0114	0.5706
C	2.8417	-8.1676	0.6632
Si	3.4427	-9.8965	0.7917
C	4.7852	-10.1500	-0.4955
C	4.1264	-10.1487	2.5223
C	1.9983	-11.0524	0.4702
C	2.7827	-4.6944	-0.1745
C	2.3284	-3.3739	-0.2972
C	3.1483	-2.3427	-0.9549
C	0.6392	2.0806	2.3324
C	-0.2465	2.2383	3.4101
C	-1.4705	1.4206	3.4632
C	0.0523	3.1715	4.4124
C	1.2272	3.9450	4.3418
C	1.5219	4.8983	5.3569
C	1.7682	5.7248	6.2275
Si	2.1137	6.9709	7.5297
C	0.4836	7.7420	8.0517
C	2.9290	6.1014	8.9812
C	3.2548	8.2747	6.8085
C	2.1044	3.7698	3.2542
C	1.8159	2.8403	2.2451
C	2.7253	2.6529	1.0988
H	-1.8048	-1.1818	4.9388
H	-3.0005	-2.4130	5.3770
H	-1.6718	-2.8075	4.2737
H	-4.3647	1.3672	4.5108
H	-3.5091	0.1336	5.3828
H	-4.9956	1.8640	0.9661
H	-4.2393	2.2443	2.5104
H	-5.9265	1.7060	2.4652
H	-6.2613	-1.2722	-0.3614
H	-6.3979	0.3274	0.2983
H	-4.5929	-2.6010	-0.8863
H	-3.7062	-3.8440	-0.0073
H	-5.4542	-3.6772	0.2260
H	-3.8593	-4.6508	2.0303
H	-3.1433	-4.2761	3.5661
H	2.7705	4.3155	-1.4177
H	2.0332	3.9441	-2.9738
H	3.6783	4.5974	-2.9125
H	2.8024	3.0863	-4.8527
H	2.9059	1.4813	-5.5053
H	2.4101	-0.5313	-4.8178
H	4.1319	-0.7939	-5.1431
H	3.2887	-1.7749	-3.9327
H	5.3105	-1.9069	-3.1036
H	6.0516	-1.5242	-1.5811
H	6.6070	0.4609	-0.0100
H	5.2187	0.8967	1.0002
H	5.3417	-0.7297	0.3357
H	5.6769	2.8897	0.2391
H	4.8131	4.1148	-0.6345
H	-1.1260	0.5964	-1.6735
H	-3.1028	-0.0336	-0.4893
H	-4.9322	1.1225	-3.6110
H	-3.9348	4.7357	-9.1004
H	-5.5644	5.1091	-9.7102
H	-5.1402	5.4665	-8.0188
H	-5.6221	0.8006	-9.4456
H	-4.2337	1.7613	-9.9993
H	-5.8615	2.1079	-10.6294
H	-7.5774	3.7599	-7.0240
H	-8.0207	3.3916	-8.7074
H	-7.7454	2.0702	-7.5479
H	-1.2724	2.2075	-5.6611
H	0.9334	1.1746	-2.7455
H	0.7117	-2.0008	0.1256
H	-1.3349	-2.5329	1.2429
H	0.0997	-6.0433	1.4679
H	4.3970	-9.9761	-1.5090
H	5.6247	-9.4595	-0.3326
H	5.1764	-11.1775	-0.4528
H	4.9541	-9.4539	2.7223
H	3.3503	-9.9757	3.2811
H	4.5038	-11.1744	2.6478
H	2.3182	-12.1028	0.5398
H	1.1932	-10.8928	1.2013
H	1.5802	-10.8900	-0.5333
H	3.7603	-4.9547	-0.5786
H	2.7043	-1.3297	-0.9966
H	0.4070	1.3539	1.5488
H	-1.6176	0.7226	2.6169
H	-0.6393	3.2911	5.2458
H	0.6437	8.4965	8.8365
H	-0.0087	8.2347	7.2016
H	-0.2052	6.9818	8.4462
H	2.2727	5.3214	9.3924
H	3.8715	5.6244	8.6781
H	3.1528	6.8171	9.7865
H	3.4923	9.0447	7.5575
H	4.1998	7.8278	6.4688
H	2.7880	8.7714	5.9462
H	3.0182	4.3584	3.1819
H	2.4135	1.8981	0.3518
