132

C	-2.2646	-2.1523	4.5681
C	-3.1572	-1.7430	3.4149
C	-3.6658	-0.4295	3.3456
C	-4.4258	-0.0199	2.2302
C	-4.7339	-0.9498	1.2152
C	-4.2285	-2.2653	1.2799
C	-3.4711	-2.6694	2.3990
C	-3.0111	-4.1096	2.5207
N	-1.7131	-4.4905	1.9579
C	-4.4880	-3.2336	0.1447
C	-5.6392	-0.5431	0.0679
N	-5.0497	0.0401	-1.1403
C	-4.8962	1.4159	2.1199
C	-3.4171	0.5346	4.4891
N	-2.2206	1.3796	4.4641
C	5.5010	0.4548	-0.0227
C	4.7126	0.9251	-1.2276
C	4.2531	2.2565	-1.2967
C	3.4495	2.6752	-2.3768
C	3.1667	1.7773	-3.4273
C	3.6218	0.4441	-3.3636
C	4.4233	0.0306	-2.2788
C	5.0035	-1.3705	-2.2584
N	4.2504	-2.4493	-1.6134
C	3.2405	-0.5432	-4.4473
C	2.3934	2.2548	-4.6416
N	0.9326	2.1341	-4.6513
C	2.8798	4.0782	-2.4026
C	4.6468	3.2460	-0.2183
N	3.7910	3.3912	0.9614
C	3.5046	-9.6374	0.4451
C	2.8010	-9.0932	1.5240
C	2.3293	-7.7815	1.4656
C	2.5536	-6.9854	0.3279
C	3.2659	-7.5438	-0.7486
C	3.7358	-8.8568	-0.6909
C	2.0485	-5.5928	0.2668
C	0.8061	-5.2603	0.8272
C	0.3152	-3.9473	0.7802
C	-0.9931	-3.6112	1.3669
C	1.0814	-2.9520	0.1540
C	2.3248	-3.2619	-0.4180
C	3.1148	-2.2051	-1.0744
C	2.7987	-4.5813	-0.3520
C	-5.7162	3.0551	-7.9902
C	-4.5767	3.7747	-7.6200
C	-3.8020	3.3568	-6.5372
C	-4.1514	2.2112	-5.7997
C	-5.3018	1.4978	-6.1818
C	-6.0752	1.9148	-7.2661
C	-3.3259	1.7672	-4.6500
C	-3.9227	1.2117	-3.5078
C	-3.1491	0.7819	-2.4185
C	-3.7815	0.1962	-1.2236
C	-1.7538	0.9226	-2.4723
C	-1.1352	1.4811	-3.6014
C	0.3304	1.6234	-3.6427
C	-1.9286	1.8938	-4.6823
C	2.2318	6.5641	7.5826
C	3.2507	5.8563	6.9381
C	2.9454	4.9676	5.9060
C	1.6140	4.7654	5.4974
C	0.5992	5.4809	6.1586
C	0.9048	6.3715	7.1888
C	1.2878	3.8229	4.3978
C	2.1294	3.7046	3.2808
C	1.8335	2.8139	2.2373
C	2.7203	2.6968	1.0667
C	0.6705	2.0330	2.3134
C	-0.1891	2.1369	3.4173
C	-1.4036	1.3053	3.4810
C	0.1303	3.0305	4.4514
H	-2.8442	-2.5645	5.4103
H	-1.5402	-2.9175	4.2645
H	-1.6875	-1.3033	4.9528
H	-3.7524	-4.7850	2.0653
H	-2.9876	-4.4125	3.5793
H	-3.6779	-3.9654	0.0443
H	-4.5675	-2.7136	-0.8174
H	-5.4239	-3.7972	0.2921
H	-6.3913	0.1808	0.4198
H	-6.2355	-1.4057	-0.2685
H	-4.9927	1.7306	1.0742
H	-4.1916	2.1077	2.5965
H	-5.8775	1.5642	2.5999
H	-4.2724	1.2194	4.6011
H	-3.3848	-0.0119	5.4447
H	6.5848	0.6051	-0.1569
H	5.3411	-0.6121	0.1727
H	5.2066	0.9922	0.8864
H	5.2058	-1.7119	-3.2857
H	5.9953	-1.3619	-1.7794
H	3.1589	-1.5627	-4.0520
H	2.2708	-0.2972	-4.8955
H	3.9832	-0.5654	-5.2618
H	2.6142	3.3156	-4.8390
H	2.7492	1.7353	-5.5454
H	2.7081	4.4626	-1.3903
H	1.9151	4.1114	-2.9229
H	3.5532	4.7858	-2.9134
H	4.7501	4.2549	-0.6474
H	5.6538	3.0121	0.1613
H	3.8718	-10.6634	0.4906
H	2.6253	-9.6913	2.4195
H	1.7998	-7.3588	2.3207
H	3.4316	-6.9492	-1.6482
H	4.2780	-9.2743	-1.5406
H	0.1814	-6.0225	1.2930
H	-1.3123	-2.5562	1.2653
H	0.7057	-1.9256	0.1101
H	2.6651	-1.1935	-1.0737
H	3.7789	-4.7945	-0.7787
H	-6.3204	3.3804	-8.8383
H	-4.2937	4.6723	-8.1720
H	-2.9280	3.9392	-6.2424
H	-5.5780	0.5935	-5.6375
H	-6.9577	1.3406	-7.5521
H	-5.0065	1.1200	-3.4323
H	-3.0939	-0.0992	-0.4078
H	-1.1431	0.5948	-1.6261
H	0.8752	1.2646	-2.7482
H	-1.4247	2.2974	-5.5606
H	2.4705	7.2605	8.3876
H	4.2891	5.9923	7.2444
H	3.7461	4.4048	5.4237
H	-0.4378	5.3549	5.8437
H	0.1025	6.9242	7.6800
H	3.0241	4.3203	3.1881
H	2.4044	1.9735	0.2904
H	0.4310	1.3374	1.5037
H	-1.5640	0.6176	2.6283
H	-0.5375	3.0747	5.3120
