129

C	-2.3434	-2.0327	4.5645
C	-3.2138	-1.5974	3.4038
C	-3.5658	-2.5183	2.3946
C	-4.3110	-2.0947	1.2743
C	-4.7633	-0.7605	1.1988
C	-4.4139	0.1649	2.2046
C	-3.6695	-0.2648	3.3234
C	-3.3986	0.6989	4.4636
N	-2.1868	1.5217	4.4397
C	-4.8299	1.6158	2.0808
C	-5.6608	-0.3311	0.0528
N	-5.0577	0.2011	-1.1719
C	-4.6143	-3.0674	0.1539
C	-3.1703	-3.9767	2.5332
N	-1.8807	-4.4237	1.9970
C	3.2725	-0.7750	-4.3494
C	3.6583	0.2464	-3.2989
C	3.2324	1.5859	-3.4232
C	3.5286	2.5214	-2.4096
C	4.3132	2.1301	-1.3045
C	4.7423	0.7928	-1.1756
C	4.4423	-0.1391	-2.1913
C	5.0026	-1.5479	-2.1176
N	4.2230	-2.6036	-1.4650
C	5.5173	0.3589	0.0512
C	4.7210	3.1562	-0.2642
N	3.8660	3.3620	0.9087
C	3.0030	3.9389	-2.5019
C	2.4909	2.0265	-4.6724
N	1.0275	1.9414	-4.7111
C	4.1567	-8.6965	0.8837
N	3.3258	-9.7464	0.7598
C	2.0315	-9.4556	0.5406
C	1.5275	-8.1583	0.4391
C	2.4007	-7.0656	0.5654
C	3.7536	-7.3632	0.7948
C	1.9178	-5.6679	0.4547
C	0.6643	-5.3015	0.9685
C	0.1990	-3.9815	0.8638
C	-1.1102	-3.5857	1.4115
C	1.0040	-3.0210	0.2329
C	2.2602	-3.3641	-0.2890
C	3.0781	-2.3355	-0.9588
C	2.7072	-4.6894	-0.1697
C	-4.4083	2.3005	-8.3164
N	-5.6016	2.9058	-8.1840
C	-6.0249	3.1182	-6.9258
C	-5.3070	2.7505	-5.7873
C	-4.0603	2.1207	-5.9311
C	-3.6134	1.8964	-7.2433
C	-3.2560	1.7118	-4.7549
C	-3.8833	1.2228	-3.5986
C	-3.1328	0.8262	-2.4810
C	-3.7848	0.2985	-1.2685
C	-1.7341	0.9268	-2.5293
C	-1.0849	1.4145	-3.6738
C	0.3862	1.5140	-3.6886
C	-1.8555	1.8036	-4.7805
C	2.5657	7.0551	6.1015
N	2.2907	6.8266	7.3973
C	1.6983	5.6537	7.6819
C	1.3666	4.6929	6.7258
C	1.6600	4.9340	5.3736
C	2.2779	6.1587	5.0719
C	1.3377	3.9467	4.3156
C	2.1947	3.7766	3.2173
C	1.9014	2.8506	2.2049
C	2.7954	2.6738	1.0476
C	0.7308	2.0842	2.3023
C	-0.1404	2.2366	3.3913
C	-1.3682	1.4257	3.4607
C	0.1720	3.1700	4.3917
H	-1.7258	-1.2069	4.9371
H	-2.9447	-2.4013	5.4118
H	-1.6579	-2.8382	4.2759
H	-3.3792	0.1557	5.4214
H	-4.2401	1.4010	4.5725
H	-5.8140	1.8004	2.5422
H	-4.1108	2.2857	2.5668
H	-4.8976	1.9285	1.0320
H	-6.3754	0.4329	0.3973
H	-6.2998	-1.1707	-0.2625
H	-4.7055	-2.5561	-0.8117
H	-3.8200	-3.8151	0.0436
H	-5.5566	-3.6124	0.3271
H	-3.9333	-4.6235	2.0733
H	-3.1756	-4.2705	3.5947
H	3.1823	-1.7805	-3.9216
H	2.3060	-0.5367	-4.8089
H	4.0172	-0.8289	-5.1604
H	5.9822	-1.5392	-1.6146
H	5.2269	-1.9180	-3.1303
H	6.6041	0.4803	-0.0868
H	5.3342	-0.6949	0.2924
H	5.2334	0.9412	0.9358
H	5.7236	2.9222	0.1269
H	4.8408	4.1458	-0.7314
H	2.0592	3.9851	-3.0579
H	2.8078	4.3616	-1.5091
H	3.7165	4.6086	-3.0094
H	2.7407	3.0719	-4.9123
H	2.8519	1.4595	-5.5446
H	5.2076	-8.9367	1.0692
H	1.3593	-10.3119	0.4345
H	0.4667	-8.0021	0.2383
H	4.4850	-6.5644	0.9247
H	0.0344	-6.0283	1.4818
H	-1.3813	-2.5197	1.2875
H	0.6466	-1.9908	0.1467
H	2.6391	-1.3198	-0.9943
H	3.6753	-4.9440	-0.6018
H	-4.0710	2.1249	-9.3420
H	-6.9933	3.6160	-6.8235
H	-5.7059	2.9754	-4.7973
H	-2.6647	1.3914	-7.4294
H	-4.9672	1.1147	-3.5523
H	-3.1045	-0.0053	-0.4496
H	-1.1412	0.6203	-1.6627
H	0.8988	1.1951	-2.7607
H	-1.3360	2.2011	-5.6527
H	3.0406	8.0138	5.8738
H	1.4814	5.4701	8.7381
H	0.9062	3.7539	7.0364
H	2.5131	6.4237	4.0403
H	3.1203	4.3469	3.1359
H	2.4795	1.9150	0.3061
H	0.4926	1.3596	1.5181
H	-1.5363	0.7311	2.6152
H	-0.5305	3.2913	5.2166
