120

C	-4.0232	1.0912	3.8563
N	-2.8416	1.9540	3.8532
C	-4.1309	-0.0357	2.8433
C	-4.7323	0.2038	1.5886
C	-4.8959	-0.8614	0.6767
C	-4.4080	-2.1480	0.9921
C	-3.8027	-2.3809	2.2470
C	-3.6412	-1.3203	3.1645
C	-2.9582	-1.5627	4.5000
C	-3.9321	-1.9831	5.6152
C	-3.3399	-3.7798	2.6179
N	-1.9743	-4.1980	2.2947
C	-4.5483	-3.2824	-0.0081
C	-5.8589	-4.0741	0.1472
C	-5.6109	-0.6234	-0.6435
N	-4.8398	-0.2181	-1.8203
C	-5.2189	1.5972	1.2310
C	-6.6757	1.8612	1.6528
C	4.6252	3.3018	-0.0356
N	3.5937	3.5954	0.9603
C	4.4251	2.1510	-1.0071
C	3.7920	2.3808	-2.2477
C	3.6639	1.3230	-3.1736
C	4.1175	0.0283	-2.8422
C	4.7533	-0.1951	-1.6014
C	4.8826	0.8582	-0.6703
C	5.5205	0.6062	0.6855
C	7.0444	0.8229	0.6964
C	5.3066	-1.5706	-1.2705
N	4.4511	-2.5509	-0.6004
C	3.9336	-1.1177	-3.8221
C	5.1091	-1.2802	-4.8019
C	3.0398	1.5788	-4.5341
N	1.5968	1.4111	-4.7050
C	3.2628	3.7630	-2.5897
C	4.2945	4.6582	-3.2997
C	0.6013	4.4703	3.8686
C	-0.5439	3.6750	3.9020
C	-0.6927	2.6087	2.9968
C	-1.8933	1.7545	3.0164
C	0.3266	2.3640	2.0633
C	1.4809	3.1615	2.0216
C	2.5316	2.8840	1.0269
C	1.6099	4.2208	2.9385
C	2.0042	-5.4194	1.3768
C	2.8430	-4.5141	0.7276
C	2.3773	-3.2280	0.3994
C	3.2473	-2.2556	-0.2814
C	1.0613	-2.8755	0.7349
C	0.2106	-3.7819	1.3857
C	-1.1674	-3.3865	1.7203
C	0.6965	-5.0626	1.7045
C	-2.6021	0.9632	-5.2486
C	-1.2223	1.1178	-5.1182
C	-0.5960	0.8876	-3.8800
C	0.8589	1.0526	-3.7223
C	-1.3824	0.4998	-2.7845
C	-2.7718	0.3426	-2.9076
C	-3.5715	-0.0628	-1.7399
C	-3.3769	0.5792	-4.1549
H	-4.8873	1.7666	3.7684
H	-4.1032	0.6955	4.8798
H	-2.4190	-0.6561	4.8091
H	-2.1820	-2.3321	4.3842
H	-3.3989	-2.1449	6.5625
H	-4.7009	-1.2164	5.7854
H	-4.4587	-2.9129	5.3585
H	-3.9999	-4.5339	2.1640
H	-3.4559	-3.9460	3.6995
H	-4.4813	-2.8849	-1.0304
H	-3.6951	-3.9681	0.0900
H	-6.7369	-3.4270	0.0110
H	-5.9177	-4.8857	-0.5914
H	-5.9425	-4.5197	1.1484
H	-6.3948	0.1388	-0.5207
H	-6.1660	-1.5245	-0.9442
H	-5.1179	1.7575	0.1485
H	-4.5634	2.3476	1.6947
H	-7.3653	1.1518	1.1739
H	-6.8056	1.7492	2.7383
H	-6.9881	2.8778	1.3762
H	5.5583	3.1654	0.5314
H	4.7871	4.2412	-0.5850
H	5.0545	1.2566	1.4390
H	5.2965	-0.4186	1.0135
H	7.4620	0.6315	1.6946
H	7.5487	0.1550	-0.0162
H	7.3057	1.8513	0.4101
H	5.6719	-2.0646	-2.1834
H	6.2061	-1.4800	-0.6433
H	3.0041	-0.9722	-4.3900
H	3.7885	-2.0565	-3.2696
H	4.9337	-2.1184	-5.4908
H	6.0519	-1.4704	-4.2700
H	5.2594	-0.3729	-5.4038
H	3.2654	2.6008	-4.8735
H	3.5089	0.9392	-5.2967
H	2.3674	3.6694	-3.2204
H	2.9164	4.2626	-1.6741
H	4.6330	4.2093	-4.2440
H	5.1885	4.8099	-2.6787
H	3.8675	5.6451	-3.5267
H	0.7088	5.2938	4.5766
H	-1.3413	3.8571	4.6227
H	-1.9224	0.9384	2.2691
H	0.2192	1.5371	1.3548
H	2.3448	2.0304	0.3470
H	2.5111	4.8327	2.8997
H	2.3730	-6.4149	1.6289
H	3.8674	-4.7767	0.4634
H	2.8011	-1.2650	-0.4945
H	0.6916	-1.8767	0.4841
H	-1.4596	-2.3551	1.4443
H	0.0273	-5.7588	2.2101
H	-3.0785	1.1447	-6.2134
H	-0.6024	1.4193	-5.9626
H	1.2670	0.8537	-2.7125
H	-0.9052	0.3188	-1.8166
H	-3.0123	-0.2240	-0.7982
H	-4.4567	0.4547	-4.2383
