240

C	-3.8604	1.9466	-7.5986
N	-2.6695	1.1950	-7.2061
C	-4.5058	2.6748	-6.4279
C	-5.6114	2.1019	-5.7672
C	-6.2480	2.8171	-4.7281
C	-5.7474	4.0692	-4.3142
C	-4.6424	4.6356	-4.9845
C	-4.0048	3.9325	-6.0268
C	-2.7888	4.5176	-6.7228
C	-3.1404	5.3886	-7.9412
C	-4.1664	6.0327	-4.6099
N	-3.2129	6.0463	-3.5015
C	-6.3969	4.8090	-3.1572
C	-7.5248	5.7629	-3.5902
C	-7.5066	2.2550	-4.0867
N	-7.4172	1.3664	-2.9298
C	-6.1199	0.7245	-6.1603
C	-7.1659	0.7387	-7.2885
C	4.5984	-7.0449	-2.2978
N	3.4419	-6.8000	-1.4408
C	5.0132	-5.8144	-3.0902
C	6.0686	-5.0034	-2.6275
C	6.5037	-3.9122	-3.4114
C	5.8460	-3.5961	-4.6180
C	4.7876	-4.4125	-5.0711
C	4.3536	-5.5103	-4.3007
C	3.1925	-6.3713	-4.7659
C	3.6168	-7.5464	-5.6656
C	4.1368	-4.1255	-6.4162
N	3.0583	-3.1408	-6.3371
C	6.2807	-2.3904	-5.4330
C	7.3660	-2.7097	-6.4771
C	7.7151	-3.1053	-2.9710
N	7.5585	-1.9556	-2.0822
C	6.7464	-5.3020	-1.3012
C	7.9196	-6.2914	-1.4098
C	-2.8827	-6.8237	4.4881
N	-1.9094	-6.6260	3.4169
C	-3.6600	-5.5612	4.8297
C	-4.8414	-5.2514	4.1215
C	-5.6091	-4.1317	4.5036
C	-5.1718	-3.2937	5.5536
C	-3.9909	-3.6123	6.2546
C	-3.2185	-4.7328	5.8810
C	-1.9339	-5.0467	6.6278
C	-2.1403	-5.9695	7.8417
C	-3.5628	-2.7718	7.4491
N	-2.5422	-1.7823	7.1092
C	-5.9898	-2.0712	5.9328
C	-7.0365	-2.3442	7.0268
C	-6.9431	-3.8556	3.8258
N	-7.0205	-2.9619	2.6714
C	-5.2949	-6.1306	2.9695
C	-6.2075	-7.2911	3.4046
C	2.9278	4.9086	6.5620
N	2.0851	3.7187	6.4674
C	3.5286	5.3232	5.2260
C	4.7490	4.7568	4.7986
C	5.3540	5.2159	3.6101
C	4.7143	6.1966	2.8188
C	3.4913	6.7487	3.2502
C	2.8823	6.3001	4.4422
C	1.5458	6.8799	4.8705
C	1.6670	8.1276	5.7635
C	2.8372	7.8640	2.4485
N	1.7859	7.3779	1.5571
C	5.3587	6.6563	1.5216
C	6.2810	7.8768	1.6877
C	6.7282	4.7034	3.2057
N	6.8635	3.5718	2.2897
C	5.4160	3.6752	5.6302
C	6.3838	4.2290	6.6915
C	-1.4607	-2.2057	-7.8305
C	-0.3566	-3.0371	-7.6626
C	0.7819	-2.5832	-6.9755
C	1.9456	-3.4706	-6.8811
C	0.7788	-1.2788	-6.4365
C	-0.3206	-0.4511	-6.6051
C	-1.4544	-0.8987	-7.3165
C	-2.6113	-0.0328	-7.5686
C	-7.3711	-0.3940	-0.6841
C	-7.2953	-1.2325	0.4144
C	-6.0507	-1.5301	1.0105
C	-5.9665	-2.4244	2.1780
C	-4.8890	-0.9572	0.4667
C	-4.9658	-0.1117	-0.6433
C	-6.2058	0.1832	-1.2336
C	-6.2860	1.0789	-2.4000
C	0.0051	7.7064	-2.9358
C	0.9733	7.9547	-1.9666
C	0.8440	7.4165	-0.6760
C	1.8515	7.7532	0.3337
C	-0.2688	6.5986	-0.3853
C	-1.2308	6.3480	-1.3519
C	-1.1144	6.9103	-2.6414
C	-2.1383	6.7228	-3.6752
C	1.6122	-7.5358	2.9830
C	2.6458	-7.5587	2.0508
C	2.4510	-7.0516	0.7559
C	3.5454	-7.1556	-0.2142
C	1.1974	-6.4958	0.4211
C	0.1691	-6.4694	1.3503
C	0.3589	-6.9999	2.6445
C	-0.7191	-7.0459	3.6372
C	4.8430	1.1050	0.4815
C	4.9793	0.0079	-0.3735
C	6.2508	-0.4162	-0.7940
C	6.3985	-1.5745	-1.6910
C	7.3848	0.2894	-0.3371
C	7.2507	1.3731	0.5123
C	5.9749	1.8011	0.9388
C	5.8322	2.9491	1.8506
C	-0.6034	0.3569	6.6025
C	0.2880	1.4122	6.4898
C	-0.0284	2.6780	7.0281
C	0.9127	3.8006	6.9784
C	-1.2700	2.8595	7.6579
C	-2.1667	1.8001	7.7697
C	-1.8414	0.5335	7.2569
C	-2.7818	-0.5724	7.4571
H	-3.5335	2.6880	-8.3435
H	-4.5977	1.3055	-8.1136
H	-2.2058	5.1113	-6.0059
H	-2.1198	3.7014	-7.0269
H	-3.6996	4.8175	-8.6966
H	-2.2323	5.7814	-8.4206
H	-3.7726	6.2421	-7.6581
H	-5.0326	6.6258	-4.2809
H	-3.7646	6.5523	-5.4986
H	-5.6264	5.3688	-2.6096
H	-6.7953	4.0833	-2.4343
H	-7.9588	6.2789	-2.7221
H	-7.1614	6.5285	-4.2908
H	-8.3342	5.2239	-4.1030
H	-8.1733	3.0757	-3.7802
H	-8.0984	1.7083	-4.8372
H	-6.5478	0.2285	-5.2780
H	-5.2713	0.0922	-6.4563
H	-6.7624	1.1840	-8.2088
H	-8.0486	1.3306	-7.0081
H	-7.5041	-0.2808	-7.5233
H	4.3060	-7.8397	-3.0009
H	5.4531	-7.4470	-1.7258
H	2.4643	-5.7472	-5.3014
H	2.6504	-6.7502	-3.8891
H	4.3185	-8.2168	-5.1487
H	4.1250	-7.1954	-6.5750
H	2.7450	-8.1424	-5.9716
H	3.7954	-5.0648	-6.8874
H	4.8932	-3.7055	-7.0956
H	6.6494	-1.6057	-4.7573
H	5.4029	-1.9541	-5.9290
H	8.2755	-3.1072	-6.0049
H	7.0247	-3.4680	-7.1965
H	7.6435	-1.8088	-7.0426
H	8.4452	-3.7659	-2.4779
H	8.2593	-2.7297	-3.8508
H	7.1035	-4.3647	-0.8527
H	6.0041	-5.6913	-0.5905
H	8.3791	-6.4674	-0.4267
H	7.5943	-7.2612	-1.8122
H	8.7004	-5.9127	-2.0845
H	-3.5865	-7.5905	4.1320
H	-2.4116	-7.2437	5.3953
H	-1.4653	-4.1067	6.9491
H	-1.2105	-5.5045	5.9399
H	-2.8358	-5.5287	8.5702
H	-1.1884	-6.1607	8.3577
H	-2.5662	-6.9383	7.5438
H	-3.1202	-3.4334	8.2091
H	-4.4395	-2.3031	7.9295
H	-5.3182	-1.2657	6.2608
H	-6.4931	-1.6749	5.0402
H	-7.6090	-1.4350	7.2604
H	-6.5668	-2.6988	7.9552
H	-7.7488	-3.1205	6.7138
H	-7.4037	-4.8006	3.5002
H	-7.6614	-3.4575	4.5591
H	-5.8198	-5.5170	2.2238
H	-4.4129	-6.5264	2.4473
H	-5.7056	-7.9508	4.1271
H	-6.5065	-7.9018	2.5409
H	-7.1215	-6.9241	3.8929
H	2.3868	5.7567	7.0195
H	3.7429	4.6601	7.2576
H	0.9546	7.1181	3.9758
H	0.9649	6.1109	5.3973
H	2.2104	7.9069	6.6934
H	0.6743	8.5155	6.0332
H	2.2178	8.9337	5.2581
H	2.3590	8.5698	3.1445
H	3.5976	8.4484	1.9009
H	4.5771	6.8858	0.7840
H	5.9296	5.8277	1.0810
H	6.7308	8.1642	0.7267
H	7.0970	7.6681	2.3938
H	5.7336	8.7452	2.0808
H	7.3078	4.4293	4.1002
H	7.3145	5.5205	2.7579
H	5.9593	2.9859	4.9682
H	4.6433	3.0619	6.1134
H	5.8696	4.8983	7.3963
H	7.1919	4.8155	6.2315
H	6.8423	3.4153	7.2708
H	-2.3361	-2.5645	-8.3766
H	-0.3659	-4.0477	-8.0772
H	1.8123	-4.4663	-7.3543
H	1.6634	-0.9365	-5.8984
H	-0.3286	0.5628	-6.2039
H	-3.4420	-0.5073	-8.1326
H	-8.3293	-0.1603	-1.1487
H	-8.1913	-1.6829	0.8421
H	-4.9566	-2.6019	2.5939
H	-3.9186	-1.1776	0.9174
H	-4.0557	0.3282	-1.0571
H	-5.3290	1.4800	-2.7842
H	0.1072	8.1415	-3.9325
H	1.8347	8.5831	-2.2026
H	2.6844	8.3928	-0.0273
H	-0.3565	6.1786	0.6174
H	-2.0985	5.7244	-1.1342
H	-1.9342	7.2401	-4.6364
H	1.7687	-7.9453	3.9834
H	3.6142	-7.9864	2.3198
H	4.4830	-7.6027	0.1785
H	1.0566	-6.1017	-0.5859
H	-0.8069	-6.0531	1.0984
H	-0.4422	-7.5046	4.6099
H	3.8490	1.4247	0.8028
H	4.0918	-0.5281	-0.7177
H	5.4674	-2.0877	-1.9978
H	8.3667	-0.0464	-0.6710
H	8.1235	1.9191	0.8705
H	4.8003	3.2337	2.1312
H	-0.3643	-0.6285	6.2014
H	1.2512	1.2859	5.9946
H	0.5509	4.7414	7.4440
H	-1.5255	3.8378	8.0713
H	-3.1250	1.9460	8.2731
H	-3.7280	-0.2988	7.9697
