120

C	-4.1579	1.3472	3.6517
N	-2.9291	2.1416	3.6809
C	-4.2824	0.2078	2.6547
C	-4.8126	0.4544	1.3700
C	-4.9814	-0.6153	0.4650
C	-4.5741	-1.9190	0.8215
C	-4.0378	-2.1572	2.1051
C	-3.8668	-1.0918	3.0152
C	-3.2565	-1.3467	4.3826
C	-4.2969	-1.7136	5.4560
C	-3.6449	-3.5668	2.5088
N	-2.2831	-4.0315	2.2448
C	-4.7363	-3.0636	-0.1638
C	-6.1019	-3.7652	-0.0529
C	-5.6051	-0.3638	-0.8971
N	-4.7436	-0.0171	-2.0286
C	-5.2150	1.8630	0.9705
C	-6.6788	2.1944	1.3092
C	3.3340	1.3455	-4.4056
N	1.8920	1.2452	-4.6308
C	3.8867	1.0853	-3.0162
C	4.0118	2.1504	-2.0988
C	4.5817	1.9156	-0.8292
C	4.9736	0.6126	-0.4552
C	4.8362	-0.4496	-1.3744
C	4.2685	-0.2221	-2.6463
C	4.0756	-1.3775	-3.6143
C	5.2904	-1.6233	-4.5262
C	5.2972	-1.8437	-0.9901
N	4.3564	-2.7477	-0.3289
C	5.5517	0.3585	0.9259
C	7.0815	0.5142	0.9831
C	4.7739	3.0718	0.1365
N	3.6993	3.4135	1.0684
C	3.5465	3.5455	-2.4783
C	4.6435	4.3970	-3.1419
C	0.3470	-5.0217	1.7816
C	1.6506	-5.4338	1.5201
Br	2.1826	-7.2097	2.0107
C	2.5780	-4.5927	0.9128
C	2.1892	-3.2909	0.5505
C	3.1519	-2.3829	-0.0997
C	0.8767	-2.8660	0.8072
C	-0.0496	-3.7213	1.4226
C	-1.4251	-3.2625	1.6896
C	-3.1313	0.6743	-4.2821
C	-2.2758	0.9912	-5.3336
Br	-3.0173	1.3181	-7.0716
C	-0.8982	1.0781	-5.1577
C	-0.3526	0.8420	-3.8837
C	1.1025	0.9420	-3.6711
C	-1.2051	0.5187	-2.8172
C	-2.5931	0.4315	-3.0059
C	-3.4769	0.0836	-1.8769
C	1.6776	4.1399	2.9367
C	0.6361	4.4469	3.8073
Br	0.8508	5.8966	5.0440
C	-0.5576	3.7308	3.8054
C	-0.7173	2.6654	2.9019
C	-1.9650	1.8813	2.8813
C	0.3262	2.3481	2.0191
C	1.5237	3.0787	2.0275
C	2.6109	2.7414	1.0901
H	-4.3002	0.9779	4.6784
H	-4.9777	2.0683	3.5168
H	-2.6932	-0.4610	4.7083
H	-2.5099	-2.1500	4.3102
H	-5.0371	-0.9117	5.5870
H	-3.8139	-1.8918	6.4267
H	-4.8536	-2.6207	5.1817
H	-3.8091	-3.7193	3.5860
H	-4.3108	-4.3037	2.0359
H	-4.5985	-2.6927	-1.1891
H	-3.9340	-3.7995	-0.0154
H	-6.2549	-4.1865	0.9507
H	-6.9286	-3.0640	-0.2347
H	-6.1841	-4.5836	-0.7815
H	-6.3539	0.4400	-0.8350
H	-6.1874	-1.2388	-1.2218
H	-5.0489	2.0041	-0.1067
H	-4.5531	2.5908	1.4602
H	-6.9294	3.2208	1.0070
H	-7.3729	1.5113	0.7999
H	-6.8717	2.1010	2.3871
H	3.6222	2.3493	-4.7524
H	3.8005	0.6708	-5.1388
H	3.1862	-1.1961	-4.2338
H	3.8504	-2.2951	-3.0526
H	6.1928	-1.8487	-3.9407
H	5.1069	-2.4670	-5.2058
H	5.5184	-0.7384	-5.1369
H	5.6627	-2.3874	-1.8740
H	6.1775	-1.7911	-0.3324
H	5.2750	-0.6499	1.2641
H	5.0883	1.0407	1.6522
H	7.5812	-0.1841	0.2970
H	7.3926	1.5271	0.6909
H	7.4584	0.3223	1.9972
H	4.9985	3.9981	-0.4129
H	5.6685	2.9119	0.7565
H	3.1718	4.0655	-1.5856
H	2.6820	3.4761	-3.1534
H	4.2638	5.3957	-3.3981
H	5.0131	3.9272	-4.0643
H	5.5103	4.5232	-2.4781
H	-0.3785	-5.6801	2.2569
H	3.5981	-4.9137	0.7082
H	2.7682	-1.3821	-0.3745
H	0.5723	-1.8546	0.5246
H	-1.6616	-2.2258	1.3832
H	-4.2092	0.6056	-4.4203
H	-0.2284	1.3282	-5.9789
H	1.4604	0.7434	-2.6430
H	-0.7824	0.3329	-1.8261
H	-2.9782	-0.0842	-0.9035
H	2.6107	4.7011	2.9371
H	-1.3726	3.9701	4.4868
H	-2.0102	1.0607	2.1406
H	0.2037	1.5208	1.3148
H	2.4248	1.8842	0.4154
