304

C	7.4720	6.1815	1.7313
N	7.2049	4.8746	1.1368
C	6.1889	6.9965	1.8336
C	5.4679	7.0377	3.0462
C	4.2924	7.8132	3.1275
C	3.7943	8.4799	1.9872
C	4.5146	8.4176	0.7770
C	5.7075	7.6689	0.6920
C	6.4619	7.5817	-0.6221
C	7.5018	8.7022	-0.7942
C	3.9854	9.1178	-0.4700
N	3.2885	8.1605	-1.3241
C	2.4882	9.2486	2.0740
C	2.6780	10.7330	2.4304
C	3.5272	7.9083	4.4419
N	2.4019	6.9777	4.4674
C	5.9433	6.2388	4.2472
C	6.9073	7.0067	5.1666
C	5.0513	-3.6675	-7.4718
N	5.1124	-3.4964	-6.0228
C	3.6348	-3.4540	-7.9924
C	2.6995	-4.5068	-7.8977
C	1.4001	-4.3299	-8.4132
C	1.0214	-3.0973	-8.9866
C	1.9570	-2.0445	-9.0582
C	3.2574	-2.2077	-8.5338
C	4.2419	-1.0522	-8.5491
C	5.1008	-0.9922	-9.8225
C	1.5403	-0.7137	-9.6750
N	0.8133	0.1010	-8.7057
C	-0.3831	-2.9077	-9.5271
C	-0.5073	-3.3026	-11.0095
C	0.3752	-5.4547	-8.3089
N	-0.4922	-5.2300	-7.1571
C	3.1047	-5.8147	-7.2433
C	3.6555	-6.8471	-8.2416
C	-9.7801	-0.6700	-0.6110
N	-8.5994	-1.5149	-0.4686
C	-9.4546	0.7693	-0.2294
C	-9.1455	1.7163	-1.2293
C	-8.8674	3.0485	-0.8586
C	-8.8250	3.4194	0.5031
C	-9.1172	2.4595	1.4937
C	-9.4205	1.1292	1.1330
C	-9.7045	0.0915	2.2035
C	-11.1954	0.0073	2.5774
C	-9.0582	2.8368	2.9697
N	-7.7756	2.4296	3.5356
C	-8.4713	4.8462	0.8841
C	-9.7025	5.7570	1.0286
C	-8.5854	4.0961	-1.9291
N	-7.1507	4.2945	-2.1178
C	-9.1068	1.2987	-2.6889
C	-10.4637	1.4154	-3.4021
C	0.0106	-8.3671	4.9970
N	-0.3658	-7.8044	3.7043
C	0.9327	-7.4243	5.7603
C	2.3082	-7.3935	5.4435
C	3.1699	-6.5486	6.1718
C	2.6593	-5.7119	7.1871
C	1.2814	-5.7381	7.4833
C	0.4074	-6.5710	6.7530
C	-1.0857	-6.5423	7.0271
C	-1.5355	-7.5321	8.1143
C	0.7358	-4.8139	8.5652
N	0.5632	-3.4647	8.0362
C	3.5877	-4.7906	7.9565
C	4.1746	-5.4508	9.2164
C	4.6559	-6.4943	5.8375
N	4.9391	-5.3487	4.9753
C	2.8425	-8.2672	4.3224
C	3.3307	-9.6435	4.8046
C	1.7549	6.2235	-2.8425
C	0.9638	5.3446	-3.5668
C	-0.3444	5.7077	-3.9501
C	-0.8298	6.9778	-3.5940
C	-0.0333	7.8481	-2.8539
C	1.2694	7.4917	-2.4649
C	2.0767	8.4118	-1.6576
N	-1.1685	4.7953	-4.6601
C	-0.6026	3.9383	-5.6387
C	-1.0167	2.5930	-5.7352
C	-0.4467	1.7465	-6.6741
C	0.5639	2.2028	-7.5436
C	1.2009	1.3081	-8.5151
C	0.9728	3.5439	-7.4401
C	0.3959	4.4059	-6.5113
C	-2.5408	4.6702	-4.3181
C	-2.9534	4.7187	-2.9700
C	-4.2927	4.5723	-2.6387
C	-5.2672	4.3653	-3.6358
C	-6.6857	4.1947	-3.3089
C	-4.8467	4.3155	-4.9769
C	-3.5071	4.4743	-5.3199
C	6.5692	2.2220	0.1481
C	6.3230	0.9256	-0.2782
C	6.8827	-0.1727	0.4077
C	7.6986	0.0688	1.5272
C	7.9223	1.3725	1.9606
C	7.3682	2.4714	1.2817
C	7.6090	3.8332	1.7654
N	6.6013	-1.5007	-0.0032
C	6.3621	-2.5034	0.9738
C	5.6380	-2.2013	2.1460
C	5.3828	-3.1851	3.0890
C	5.8272	-4.5079	2.8920
C	5.5319	-5.5685	3.8602
C	6.5482	-4.8017	1.7211
C	6.8237	-3.8160	0.7769
C	6.4535	-1.8088	-1.3801
C	7.3179	-1.2455	-2.3346
C	7.1472	-1.5323	-3.6858
C	6.1292	-2.3964	-4.1256
C	5.9761	-2.6719	-5.5557
C	5.2728	-2.9650	-3.1616
C	5.4264	-2.6737	-1.8143
C	0.2668	4.9944	4.6146
C	-0.7336	4.0469	4.7733
C	-0.7888	3.2519	5.9379
C	0.1903	3.4301	6.9312
C	1.1992	4.3728	6.7557
C	1.2548	5.1759	5.6027
C	2.3264	6.1635	5.4552
N	-1.8052	2.2747	6.0992
C	-1.4853	1.0005	6.6351
C	-0.2532	0.3840	6.3311
C	0.0481	-0.8719	6.8354
C	-0.8725	-1.5657	7.6457
C	-0.5811	-2.9033	8.1675
C	-2.1001	-0.9482	7.9391
C	-2.4028	0.3214	7.4562
C	-3.1163	2.5301	5.6189
C	-3.7066	3.7948	5.7867
C	-4.9812	4.0410	5.2832
C	-5.7092	3.0388	4.6192
C	-7.0416	3.3268	4.0823
C	-5.1128	1.7720	4.4635
C	-3.8379	1.5217	4.9472
C	-1.4991	-7.0569	-4.1416
C	-2.2444	-6.9222	-2.9731
C	-2.8602	-5.6963	-2.6685
C	-2.7233	-4.6174	-3.5670
C	-1.9952	-4.7667	-4.7364
C	-1.3652	-5.9888	-5.0447
C	-0.5676	-6.1455	-6.2633
N	-3.5946	-5.5401	-1.4648
C	-3.0986	-6.0944	-0.2567
C	-3.9797	-6.6483	0.6879
C	-3.4874	-7.1642	1.8835
C	-2.1099	-7.1632	2.1642
C	-1.6140	-7.7177	3.4259
C	-1.2335	-6.6121	1.2083
C	-1.7163	-6.0814	0.0220
C	-4.7647	-4.7385	-1.4495
C	-5.6697	-4.7791	-2.5249
C	-6.7920	-3.9559	-2.5241
C	-7.0612	-3.0930	-1.4477
C	-8.2477	-2.2345	-1.4691
C	-6.1572	-3.0702	-0.3669
C	-5.0256	-3.8709	-0.3681
H	7.9739	6.0988	2.7121
H	8.1788	6.7054	1.0699
H	6.9514	6.6019	-0.6961
H	5.7443	7.6064	-1.4526
H	7.0335	9.6966	-0.7583
H	8.0259	8.6097	-1.7563
H	8.2565	8.6781	0.0057
H	4.8316	9.5208	-1.0466
H	3.3506	9.9821	-0.2059
H	1.9508	9.1696	1.1192
H	1.8312	8.7654	2.8086
H	1.7107	11.2518	2.4944
H	3.1892	10.8506	3.3969
H	3.2934	11.2492	1.6795
H	3.1138	8.9236	4.5431
H	4.2024	7.7664	5.3047
H	6.4251	5.3137	3.9034
H	5.0754	5.9000	4.8287
H	6.4386	7.9189	5.5621
H	7.2207	6.3871	6.0194
H	7.8101	7.3204	4.6233
H	5.3625	-4.6999	-7.6926
H	5.7703	-3.0136	-7.9970
H	4.8951	-1.1139	-7.6684
H	3.6990	-0.1052	-8.4277
H	5.6876	-1.9129	-9.9506
H	4.4744	-0.8849	-10.7195
H	5.7999	-0.1439	-9.7915
H	0.8595	-0.9063	-10.5181
H	2.4097	-0.1800	-10.0996
H	-0.6889	-1.8621	-9.3904
H	-1.0877	-3.4934	-8.9224
H	-1.5344	-3.1561	-11.3734
H	0.1649	-2.7052	-11.6428
H	-0.2385	-4.3572	-11.1683
H	0.8675	-6.4428	-8.2767
H	-0.2592	-5.4540	-9.2079
H	3.8472	-5.6135	-6.4603
H	2.2442	-6.2441	-6.7127
H	3.9496	-7.7753	-7.7306
H	2.9089	-7.1008	-9.0077
H	4.5373	-6.4597	-8.7722
H	-10.2159	-0.7285	-1.6242
H	-10.5482	-1.0586	0.0748
H	-9.1067	0.3186	3.0957
H	-9.3482	-0.8891	1.8615
H	-11.5702	0.9689	2.9573
H	-11.8153	-0.2537	1.7073
H	-11.3651	-0.7526	3.3537
H	-9.2578	3.9129	3.1167
H	-9.8480	2.2981	3.5147
H	-7.7803	5.2607	0.1387
H	-7.9048	4.8476	1.8251
H	-9.4085	6.7827	1.2942
H	-10.2784	5.8017	0.0929
H	-10.3858	5.3851	1.8057
H	-9.0965	3.8413	-2.8750
H	-9.0080	5.0601	-1.6069
H	-8.7405	0.2658	-2.7641
H	-8.3590	1.8986	-3.2244
H	-10.3898	1.0970	-4.4522
H	-11.2270	0.7954	-2.9108
H	-10.8332	2.4507	-3.3851
H	0.5447	-9.3092	4.7998
H	-0.8709	-8.6380	5.6054
H	-1.6348	-6.7447	6.0979
H	-1.3869	-5.5250	7.3114
H	-1.0336	-7.3269	9.0707
H	-2.6212	-7.4756	8.2796
H	-1.2859	-8.5664	7.8376
H	1.4627	-4.7544	9.3895
H	-0.1955	-5.2133	9.0048
H	3.0471	-3.8752	8.2301
H	4.3983	-4.4569	7.2958
H	3.3834	-5.7648	9.9129
H	4.7525	-6.3526	8.9659
H	4.8415	-4.7592	9.7510
H	5.0014	-7.4449	5.3941
H	5.2318	-6.3596	6.7655
H	3.6636	-7.7480	3.8098
H	2.0645	-8.3903	3.5577
H	3.6968	-10.2512	3.9646
H	4.1462	-9.5449	5.5357
H	2.5246	-10.2032	5.3007
H	2.7575	5.9369	-2.5238
H	1.3419	4.3567	-3.8297
H	-1.8373	7.2695	-3.8904
H	-0.4271	8.8287	-2.5767
H	1.5655	9.3439	-1.3372
H	-1.7798	2.2191	-5.0528
H	-0.7505	0.7011	-6.7370
H	2.0549	1.7409	-9.0781
H	1.7514	3.9210	-8.1073
H	0.7207	5.4443	-6.4480
H	-2.2068	4.8597	-2.1883
H	-4.6130	4.5919	-1.5966
H	-7.3484	3.9723	-4.1719
H	-5.5868	4.1624	-5.7659
H	-3.1966	4.4392	-6.3640
H	6.1229	3.0721	-0.3687
H	5.6796	0.7454	-1.1393
H	8.1396	-0.7725	2.0615
H	8.5503	1.5443	2.8378
H	8.1648	3.9107	2.7237
H	5.2678	-1.1875	2.2975
H	4.8064	-2.9604	3.9868
H	5.8484	-6.5899	3.5613
H	6.9067	-5.8199	1.5528
H	7.3875	-4.0569	-0.1242
H	8.1170	-0.5800	-2.0083
H	7.8259	-1.0876	-4.4174
H	6.6651	-2.1140	-6.2245
H	4.4693	-3.6192	-3.5013
H	4.7456	-3.1030	-1.0795
H	0.3202	5.6003	3.7097
H	-1.4813	3.9029	3.9934
H	0.1550	2.8218	7.8347
H	1.9532	4.5011	7.5356
H	3.0815	6.1701	6.2696
H	0.4558	0.8988	5.6829
H	0.9925	-1.3588	6.5902
H	-1.4208	-3.4082	8.6902
H	-2.8249	-1.4677	8.5703
H	-3.3558	0.7908	7.6992
H	-3.1564	4.5800	6.3049
H	-5.4274	5.0294	5.4162
H	-7.3759	4.3821	4.1664
H	-5.6669	1.0009	3.9276
H	-3.3777	0.5447	4.8000
H	-1.0212	-8.0133	-4.3656
H	-2.3485	-7.7607	-2.2848
H	-3.1865	-3.6605	-3.3266
H	-1.8705	-3.9321	-5.4268
H	-0.0225	-7.1073	-6.3641
H	-5.0493	-6.6631	0.4795
H	-4.1831	-7.5908	2.6099
H	-2.3935	-8.0668	4.1357
H	-0.1670	-6.5907	1.4343
H	-1.0306	-5.6405	-0.7015
H	-5.4782	-5.4492	-3.3627
H	-7.4837	-3.9925	-3.3689
H	-8.8300	-2.2418	-2.4148
H	-6.3544	-2.3857	0.4587
H	-4.3206	-3.8253	0.4617
