360

C	11.1691	2.4098	-8.0326
N	9.7298	2.1374	-8.1249
C	11.8010	2.5084	-6.6547
C	11.8760	3.7570	-6.0027
C	12.4624	3.8423	-4.7211
C	12.9245	2.6788	-4.0713
C	12.8453	1.4323	-4.7292
C	12.2621	1.3385	-6.0101
C	12.1255	-0.0060	-6.7031
C	13.3465	-0.3742	-7.5626
C	13.3597	0.1808	-4.0275
N	12.3565	-0.3459	-3.1034
C	13.5016	2.7650	-2.6699
C	15.0206	3.0116	-2.6589
C	12.5465	5.1861	-4.0182
N	11.4177	5.6120	-3.1829
C	11.3266	5.0036	-6.6728
C	12.3706	5.7393	-7.5307
C	-4.5930	-11.1969	-7.3452
N	-4.1170	-9.8216	-7.5411
C	-4.6075	-11.7683	-5.9368
C	-5.7381	-11.5792	-5.1112
C	-5.7450	-12.1131	-3.8057
C	-4.6141	-12.7929	-3.3046
C	-3.4862	-12.9734	-4.1333
C	-3.4693	-12.4372	-5.4398
C	-2.2270	-12.5702	-6.3021
C	-2.2136	-13.8514	-7.1527
C	-2.2592	-13.6867	-3.5953
N	-1.2423	-12.8902	-2.8971
C	-4.6077	-13.3108	-1.8775
C	-5.1431	-14.7473	-1.7488
C	-6.9549	-11.9095	-2.9018
N	-6.7413	-10.7634	-2.0198
C	-6.9318	-10.7999	-5.6331
C	-7.9946	-11.6911	-6.2973
C	-11.1058	8.5596	-2.2798
N	-10.8053	7.3029	-1.5804
C	-9.9813	9.2540	-3.0276
C	-9.7162	8.9100	-4.3719
C	-8.6623	9.5455	-5.0617
C	-7.8388	10.4812	-4.3974
C	-8.1135	10.8227	-3.0566
C	-9.1680	10.1939	-2.3601
C	-9.4197	10.5220	-0.8993
C	-10.4050	11.6879	-0.7039
C	-7.2429	11.8442	-2.3358
N	-6.2073	11.1775	-1.5507
C	-6.6621	11.1022	-5.1292
C	-7.0082	12.4219	-5.8383
C	-8.3775	9.1835	-6.5094
N	-7.4441	8.0850	-6.7885
C	-10.5552	7.8526	-5.0681
C	-11.7903	8.4286	-5.7827
C	-1.7971	-0.8682	13.6984
N	-2.5938	-0.9782	12.4706
C	-0.2986	-0.6462	13.5824
C	0.5718	-1.7547	13.5120
C	1.9654	-1.5456	13.4262
C	2.4850	-0.2347	13.3664
C	1.6068	0.8690	13.4255
C	0.2127	0.6684	13.5046
C	-0.7414	1.8503	13.4982
C	-1.0277	2.4186	14.8984
C	2.1726	2.2821	13.3676
N	2.4352	2.6825	11.9864
C	3.9810	-0.0128	13.2307
C	4.7061	0.0798	14.5848
C	2.9033	-2.7371	13.3401
N	3.2420	-3.2624	12.0115
C	0.0104	-3.1655	13.5260
C	-0.1132	-3.7545	14.9416
C	-3.1800	-7.0874	-7.8845
C	-2.7326	-5.7760	-7.9586
C	-2.3354	-5.0810	-6.7910
C	-1.8755	-3.7381	-6.8613
C	-1.4770	-2.5849	-6.9011
C	-1.0133	-1.2383	-6.9132
C	0.3647	-0.9602	-7.0020
C	0.8308	0.3689	-6.9801
C	2.2276	0.6458	-7.0381
C	3.4232	0.8926	-7.0657
C	4.8154	1.1821	-7.0749
C	5.5177	1.3636	-5.8642
C	6.8819	1.6384	-5.8770
C	7.5903	1.7441	-7.0865
C	9.0329	2.0247	-7.0548
C	6.8890	1.5698	-8.2954
C	5.5289	1.2939	-8.2928
C	-0.0963	1.4241	-6.8773
C	-1.4772	1.1610	-6.7930
C	-2.4078	2.2313	-6.6662
C	-3.2101	3.1422	-6.5349
C	-4.1369	4.2065	-6.3649
C	-4.5031	4.6390	-5.0724
C	-5.4023	5.6895	-4.9121
C	-5.9634	6.3401	-6.0249
C	-6.9038	7.4501	-5.8141
C	-5.6027	5.9042	-7.3147
C	-4.7073	4.8580	-7.4853
C	-1.9288	-0.1729	-6.8136
C	-2.4050	-5.7496	-5.5501
C	-2.8539	-7.0649	-5.4859
C	-3.2489	-7.7547	-6.6455
C	-3.7267	-9.1392	-6.5281
C	-0.7578	-9.4282	-1.8011
C	0.1361	-8.5939	-1.1366
C	1.3586	-9.1041	-0.6493
C	2.2785	-8.2536	0.0214
C	3.0590	-7.5075	0.5911
C	3.9439	-6.6024	1.2432
C	3.6734	-6.1672	2.5551
C	4.5178	-5.2374	3.1921
C	4.2270	-4.7979	4.5152
C	3.9660	-4.4291	5.6492
C	3.6628	-4.0070	6.9719
C	2.8086	-2.9079	7.2022
C	2.5216	-2.5021	8.5023
C	3.0717	-3.1695	9.6103
C	2.7577	-2.6999	10.9666
C	3.9204	-4.2696	9.3806
C	4.2125	-4.6817	8.0885
C	5.6400	-4.7390	2.5046
C	5.9233	-5.1658	1.1915
C	7.0273	-4.6197	0.4854
C	7.9456	-4.1129	-0.1401
C	8.9793	-3.4936	-0.8849
C	9.6013	-4.1674	-1.9586
C	10.5914	-3.5353	-2.7033
C	10.9840	-2.2159	-2.4155
C	11.9977	-1.5674	-3.2533
C	10.3706	-1.5456	-1.3383
C	9.3906	-2.1712	-0.5831
C	5.0770	-6.1061	0.5714
C	1.6475	-10.4761	-0.8474
C	0.7480	-11.3002	-1.5082
C	-0.4692	-10.7898	-1.9994
C	-1.4393	-11.6378	-2.7058
C	9.1886	6.4327	-1.5231
C	8.0841	6.7545	-0.7484
C	6.9816	5.8708	-0.6616
C	5.8548	6.1983	0.1389
C	4.8924	6.4812	0.8339
C	3.7569	6.7888	1.6346
C	3.6900	6.3556	2.9724
C	2.5587	6.6409	3.7634
C	2.4861	6.1882	5.1060
C	2.4017	5.7822	6.2544
C	2.2935	5.2911	7.5786
C	1.4656	5.9361	8.5234
C	1.3527	5.4344	9.8157
C	2.0476	4.2758	10.2066
C	1.8824	3.7615	11.5693
C	2.8802	3.6360	9.2670
C	3.0066	4.1339	7.9794
C	1.4866	7.3609	3.2028
C	1.5384	7.7925	1.8641
C	0.4356	8.4784	1.2928
C	-0.5241	9.0410	0.7900
C	-1.6354	9.6721	0.1798
C	-2.9579	9.3331	0.5582
C	-4.0448	9.9226	-0.0682
C	-3.8544	10.8788	-1.0852
C	-4.9873	11.4940	-1.7835
C	-2.5424	11.2313	-1.4474
C	-1.4461	10.6371	-0.8325
C	2.6806	7.5122	1.0877
C	7.0275	4.6571	-1.3799
C	8.1412	4.3436	-2.1533
C	9.2372	5.2195	-2.2370
C	10.3956	4.8483	-3.0607
C	-8.4446	-7.5702	-1.4369
C	-8.3576	-6.3783	-0.7263
C	-7.3109	-6.1777	0.1996
C	-7.1997	-4.9567	0.9091
C	-7.0848	-3.8943	1.5002
C	-6.9230	-2.6461	2.1568
C	-6.2443	-2.5688	3.3888
C	-6.0609	-1.3276	4.0269
C	-5.3778	-1.2549	5.2739
C	-4.7891	-1.1925	6.3413
C	-4.1039	-1.1256	7.5846
C	-4.8109	-1.2423	8.8061
C	-4.1425	-1.1759	10.0202
C	-2.7472	-0.9863	10.0634
C	-2.0115	-0.8927	11.3315
C	-2.0446	-0.8748	8.8509
C	-2.7053	-0.9424	7.6277
C	-6.5530	-0.1566	3.4191
C	-7.2301	-0.2188	2.1857
C	-7.6884	0.9735	1.5577
C	-8.0522	1.9987	1.0038
C	-8.4510	3.1995	0.3574
C	-7.4981	4.0088	-0.2978
C	-7.8911	5.1872	-0.9246
C	-9.2352	5.5980	-0.9172
C	-9.6058	6.8508	-1.5872
C	-10.1870	4.7895	-0.2664
C	-9.8059	3.6099	0.3566
C	-7.4221	-1.4676	1.5663
C	-6.3635	-7.2147	0.3891
C	-6.4530	-8.3964	-0.3316
C	-7.4941	-8.5918	-1.2607
C	-7.6024	-9.8152	-2.0617
H	11.3415	3.3322	-8.6069
H	11.6637	1.6302	-8.6315
H	11.9516	-0.7924	-5.9567
H	11.2231	-0.0085	-7.3295
H	13.2041	-1.3456	-8.0572
H	13.5268	0.3802	-8.3412
H	14.2603	-0.4312	-6.9542
H	14.2489	0.4384	-3.4331
H	13.6878	-0.5771	-4.7607
H	12.9986	3.5666	-2.1114
H	13.2665	1.8431	-2.1218
H	15.2775	3.9520	-3.1672
H	15.4045	3.0655	-1.6304
H	15.5620	2.2095	-3.1809
H	12.7069	5.9956	-4.7460
H	13.4356	5.2316	-3.3718
H	10.9308	5.6896	-5.9112
H	10.4607	4.7398	-7.2957
H	13.2349	6.0515	-6.9276
H	11.9378	6.6362	-7.9955
H	12.7559	5.0926	-8.3320
H	-5.5989	-11.2359	-7.7899
H	-3.9853	-11.8267	-8.0120
H	-1.3312	-12.5437	-5.6661
H	-2.1355	-11.6940	-6.9586
H	-3.0768	-13.8882	-7.8325
H	-1.2995	-13.9128	-7.7598
H	-2.2643	-14.7503	-6.5219
H	-2.5497	-14.4857	-2.8960
H	-1.7309	-14.2174	-4.4008
H	-3.5864	-13.2678	-1.4742
H	-5.1936	-12.6327	-1.2432
H	-4.5442	-15.4529	-2.3422
H	-5.1244	-15.0817	-0.7020
H	-6.1787	-14.8249	-2.1106
H	-7.0865	-12.7963	-2.2643
H	-7.8824	-11.8123	-3.4924
H	-7.3903	-10.2303	-4.8140
H	-6.5935	-10.0389	-6.3492
H	-8.8385	-11.0923	-6.6683
H	-7.5720	-12.2456	-7.1473
H	-8.3883	-12.4369	-5.5923
H	-11.5462	9.2296	-1.5260
H	-11.9434	8.3357	-2.9573
H	-9.8023	9.6315	-0.3814
H	-8.4647	10.7501	-0.4080
H	-11.3833	11.4646	-1.1529
H	-10.5604	11.8977	0.3636
H	-10.0378	12.6083	-1.1803
H	-7.8649	12.4208	-1.6352
H	-6.8195	12.5756	-3.0465
H	-6.2645	10.3870	-5.8620
H	-5.8365	11.2707	-4.4250
H	-6.1317	12.8326	-6.3591
H	-7.8067	12.2774	-6.5798
H	-7.3668	13.1776	-5.1251
H	-9.3098	8.9291	-7.0356
H	-7.9935	10.0559	-7.0592
H	-10.8752	7.0948	-4.3395
H	-9.9357	7.3066	-5.7930
H	-11.5024	9.1620	-6.5492
H	-12.3689	7.6331	-6.2728
H	-12.4545	8.9469	-5.0766
H	-2.0088	-1.7786	14.2792
H	-2.2623	-0.0649	14.2898
H	-1.6876	1.5573	13.0234
H	-0.3386	2.6449	12.8557
H	-0.1060	2.7631	15.3878
H	-1.7242	3.2674	14.8453
H	-1.4721	1.6559	15.5536
H	3.1329	2.3099	13.9041
H	1.5091	2.9960	13.8865
H	4.1628	0.8976	12.6446
H	4.4219	-0.8265	12.6383
H	4.5737	-0.8386	15.1744
H	5.7841	0.2408	14.4434
H	4.3168	0.9087	15.1936
H	2.5058	-3.5888	13.9118
H	3.8629	-2.5132	13.8301
H	0.6414	-3.8215	12.9103
H	-0.9740	-3.1777	13.0379
H	-0.5232	-4.7738	14.9100
H	0.8637	-3.7960	15.4438
H	-0.7723	-3.1421	15.5732
H	-3.4877	-7.6249	-8.7819
H	-2.6818	-5.2645	-8.9201
H	1.0772	-1.7804	-7.0758
H	4.9790	1.2832	-4.9201
H	7.4142	1.7719	-4.9323
H	9.4770	2.1267	-6.0469
H	7.4405	1.6536	-9.2324
H	4.9931	1.1572	-9.2325
H	0.2586	2.4534	-6.8561
H	-4.0716	4.1424	-4.2034
H	-5.6770	6.0166	-3.9065
H	-7.1135	7.7029	-4.7581
H	-6.0427	6.4094	-8.1749
H	-4.4302	4.5267	-8.4864
H	-2.9949	-0.3827	-6.7414
H	-2.1027	-5.2233	-4.6448
H	-2.9039	-7.5718	-4.5194
H	-3.7330	-9.5528	-5.5024
H	-1.7005	-9.0219	-2.1751
H	-0.0964	-7.5392	-0.9894
H	2.7975	-6.5471	3.0789
H	2.3777	-2.3808	6.3509
H	1.8618	-1.6469	8.6677
H	2.0833	-1.8256	11.0248
H	4.3447	-4.7865	10.2417
H	4.8719	-5.5330	7.9177
H	6.2901	-4.0111	2.9878
H	9.2939	-5.1852	-2.1977
H	11.0635	-4.0657	-3.5334
H	12.4352	-2.2062	-4.0486
H	10.6790	-0.5232	-1.1185
H	8.9155	-1.6479	0.2469
H	5.2875	-6.4330	-0.4460
H	2.5895	-10.8766	-0.4718
H	0.9667	-12.3574	-1.6614
H	-2.3531	-11.1237	-3.0573
H	10.0403	7.1099	-1.5925
H	8.0523	7.6936	-0.1958
H	4.5177	5.7909	3.3990
H	0.9166	6.8298	8.2271
H	0.7084	5.9421	10.5367
H	1.2327	4.3720	12.2304
H	3.4195	2.7402	9.5756
H	3.6509	3.6345	7.2556
H	0.6057	7.5758	3.8059
H	-3.1083	8.5900	1.3415
H	-5.0645	9.6535	0.2081
H	-4.7203	12.2553	-2.5456
H	-2.3841	11.9743	-2.2320
H	-0.4321	10.9072	-1.1273
H	2.7233	7.8426	0.0511
H	6.1827	3.9708	-1.3215
H	8.1678	3.4008	-2.7047
H	10.3282	3.8668	-3.5657
H	-9.2572	-7.7128	-2.1527
H	-9.0929	-5.5882	-0.8782
H	-5.8569	-3.4756	3.8508
H	-5.8913	-1.3859	8.7783
H	-4.6840	-1.2639	10.9624
H	-0.9202	-0.7383	11.2378
H	-0.9622	-0.7290	8.8723
H	-2.1505	-0.8529	6.6938
H	-6.4039	0.8066	3.9049
H	-6.4531	3.6987	-0.3067
H	-7.1457	5.8069	-1.4285
H	-8.7794	7.3783	-2.0987
H	-11.2284	5.1123	-0.2651
H	-10.5465	2.9867	0.8585
H	-7.9420	-1.5217	0.6110
H	-5.5553	-7.0660	1.1057
H	-5.7190	-9.1914	-0.1965
H	-8.4882	-9.8667	-2.7285
