150

C	-3.2645	0.9469	4.5536
N	-2.0271	1.7170	4.4241
C	-3.6314	-0.0638	3.4805
C	-4.4106	0.3386	2.3747
C	-4.8006	-0.6154	1.4109
C	-4.3653	-1.9535	1.5161
C	-3.5861	-2.3501	2.6240
C	-3.1947	-1.4011	3.5934
C	-2.3165	-1.8177	4.7607
C	-3.1170	-2.2824	5.9898
C	-3.1738	-3.8040	2.7765
N	-1.9137	-4.2616	2.1903
C	-4.7416	-2.9640	0.4463
C	-6.0730	-3.6819	0.7279
C	-5.6843	-0.1973	0.2501
N	-5.0603	0.2722	-0.9868
C	-4.8303	1.7910	2.2255
C	-6.1753	2.1143	2.8995
C	4.8416	2.9260	-0.4757
N	4.0089	3.1718	0.7025
C	4.3879	1.9182	-1.5178
C	3.5815	2.3381	-2.5979
C	3.2145	1.4139	-3.5997
C	3.6037	0.0611	-3.4956
C	4.4120	-0.3516	-2.4143
C	4.7814	0.5671	-1.4085
C	5.6071	0.1055	-0.2200
C	7.1243	0.2166	-0.4509
C	4.8817	-1.7931	-2.3279
N	4.0646	-2.7685	-1.6051
C	3.1587	-0.9456	-4.5423
C	4.1373	-1.0819	-5.7222
C	2.3966	1.8764	-4.7931
N	0.9359	1.8316	-4.7214
C	3.1211	3.7832	-2.6884
C	4.0945	4.6840	-3.4681
C	3.0281	-9.7471	0.8607
C	2.3796	-9.1184	1.9276
C	1.9675	-7.7897	1.8156
C	2.1961	-7.0611	0.6340
C	2.8537	-7.7057	-0.4297
C	3.2633	-9.0350	-0.3190
C	1.7548	-5.6503	0.5086
C	0.5447	-5.2208	1.0749
C	0.1168	-3.8891	0.9557
C	-1.1596	-3.4499	1.5490
C	0.9164	-2.9736	0.2539
C	2.1294	-3.3811	-0.3220
C	2.9644	-2.4137	-1.0550
C	2.5384	-4.7161	-0.1848
C	-5.7315	2.9066	-7.9533
C	-4.5555	3.5964	-7.6443
C	-3.7710	3.1985	-6.5604
C	-4.1475	2.1046	-5.7598
C	-5.3340	1.4208	-6.0817
C	-6.1166	1.8161	-7.1677
C	-3.3167	1.6841	-4.6047
C	-3.9143	1.2234	-3.4218
C	-3.1403	0.8175	-2.3236
C	-3.7858	0.3413	-1.0873
C	-1.7411	0.8818	-2.4106
C	-1.1208	1.3428	-3.5819
C	0.3489	1.3999	-3.6688
C	-1.9162	1.7377	-4.6690
C	2.6754	6.9086	7.0728
C	3.6548	6.1128	6.4707
C	3.2982	5.1629	5.5123
C	1.9540	4.9869	5.1361
C	0.9789	5.7933	5.7515
C	1.3357	6.7444	6.7084
C	1.5724	3.9803	4.1154
C	2.3910	3.7415	3.0007
C	2.0367	2.7943	2.0271
C	2.8990	2.5525	0.8560
C	0.8371	2.0807	2.1725
C	0.0025	2.3022	3.2783
C	-1.2498	1.5384	3.4228
C	0.3808	3.2502	4.2416
H	-4.0689	1.6880	4.6721
H	-3.2114	0.4581	5.5380
H	-1.6362	-2.6204	4.4436
H	-1.6619	-0.9825	5.0463
H	-3.7825	-1.4893	6.3587
H	-2.4453	-2.5707	6.8105
H	-3.7520	-3.1471	5.7507
H	-3.1261	-4.0776	3.8414
H	-3.9525	-4.4669	2.3703
H	-3.9402	-3.7087	0.3425
H	-4.7967	-2.4634	-0.5306
H	-6.0389	-4.2304	1.6797
H	-6.3086	-4.4005	-0.0695
H	-6.9061	-2.9687	0.7995
H	-6.3504	-1.0226	-0.0427
H	-6.3754	0.6005	0.5607
H	-4.8856	2.0512	1.1592
H	-4.0494	2.4442	2.6395
H	-6.1441	1.9058	3.9782
H	-6.4371	3.1732	2.7658
H	-6.9901	1.5077	2.4799
H	4.9996	3.9107	-0.9407
H	5.8360	2.6558	-0.0901
H	5.3300	0.6883	0.6696
H	5.3511	-0.9343	0.0267
H	7.6826	-0.1267	0.4312
H	7.4236	1.2533	-0.6601
H	7.4439	-0.3881	-1.3113
H	5.8825	-1.8431	-1.8730
H	5.0300	-2.2106	-3.3350
H	3.0173	-1.9284	-4.0708
H	2.1666	-0.6659	-4.9237
H	5.1325	-1.4023	-5.3832
H	3.7730	-1.8190	-6.4513
H	4.2702	-0.1243	-6.2450
H	2.6712	1.3021	-5.6908
H	2.6538	2.9133	-5.0558
H	2.9775	4.1900	-1.6778
H	2.1285	3.8254	-3.1587
H	4.2313	4.3292	-4.4993
H	5.0890	4.6983	-3.0003
H	3.7248	5.7181	-3.5110
H	3.3481	-10.7863	0.9482
H	2.1996	-9.6631	2.8557
H	1.4804	-7.3014	2.6611
H	3.0215	-7.1650	-1.3623
H	3.7620	-9.5189	-1.1601
H	-0.1054	-5.9201	1.6009
H	-1.4199	-2.3834	1.4081
H	0.5899	-1.9344	0.1532
H	2.5843	-1.3754	-1.1004
H	3.4970	-5.0024	-0.6177
H	-6.3441	3.2166	-8.8010
H	-4.2504	4.4539	-8.2459
H	-2.8663	3.7567	-6.3149
H	-5.6318	0.5552	-5.4879
H	-7.0278	1.2652	-7.4055
H	-4.9992	1.1906	-3.3200
H	-3.1073	0.0513	-0.2625
H	-1.1294	0.5695	-1.5593
H	0.9053	1.0515	-2.7779
H	-1.4106	2.0661	-5.5772
H	2.9544	7.6516	7.8210
H	4.7021	6.2267	6.7543
H	4.0676	4.5325	5.0640
H	-0.0664	5.6889	5.4574
H	0.5643	7.3657	7.1660
H	3.3119	4.3057	2.8526
H	2.5276	1.8099	0.1241
H	0.5510	1.3434	1.4168
H	-1.4718	0.8091	2.6205
H	-0.2701	3.3873	5.1052
