147

C	-3.4598	-3.9306	2.2346
N	-2.1026	-4.3348	1.8649
C	-3.8967	-2.4952	1.9999
C	-3.7113	-1.5279	3.0116
C	-4.1629	-0.2059	2.8046
C	-4.7572	0.1581	1.5766
C	-4.9443	-0.8162	0.5720
C	-4.4865	-2.1367	0.7685
C	-4.6301	-3.1686	-0.3372
C	-5.9537	-3.9521	-0.2814
C	-5.6352	-0.4405	-0.7269
N	-4.8322	0.0580	-1.8438
C	-5.2079	1.5901	1.3424
C	-6.6619	1.8473	1.7752
C	-4.0231	0.8269	3.9104
N	-2.8166	1.6526	3.9846
C	-3.0399	-1.9103	4.3197
C	-4.0264	-2.4055	5.3925
C	5.2621	-1.5844	-1.4244
N	4.3751	-2.5964	-0.8463
C	4.7572	-0.1625	-1.6044
C	4.9260	0.7796	-0.5665
C	4.5081	2.1140	-0.7579
C	3.8734	2.4958	-1.9593
C	3.7134	1.5509	-2.9948
C	4.1311	0.2151	-2.8117
C	3.9246	-0.8050	-3.9185
C	5.1035	-0.8786	-4.9047
C	3.0956	1.9734	-4.3157
N	1.6490	1.8585	-4.4999
C	3.3792	3.9203	-2.1430
C	4.4280	4.8562	-2.7695
C	4.7405	3.1454	0.3323
N	3.7022	3.3621	1.3409
C	5.5706	0.3627	0.7440
C	7.1018	0.5198	0.7481
C	-3.3178	3.3235	-8.3777
N	-4.3861	2.6723	-8.8715
C	-4.8547	1.6545	-8.1276
C	-4.3027	1.2539	-6.9102
C	-3.1850	1.9352	-6.4012
C	-2.6924	3.0010	-7.1728
C	-2.5529	1.5431	-5.1186
C	-1.1651	1.6512	-4.9455
C	-0.5526	1.2782	-3.7391
C	0.9059	1.3988	-3.5654
C	-1.3463	0.7849	-2.6932
C	-2.7365	0.6701	-2.8435
C	-3.5619	0.1654	-1.7325
C	-3.3279	1.0526	-4.0573
C	2.3478	-9.0209	2.3166
N	3.2235	-9.6192	1.4908
C	3.6305	-8.8980	0.4314
C	3.2047	-7.5975	0.1613
C	2.2971	-6.9736	1.0329
C	1.8642	-7.7248	2.1374
C	1.8277	-5.5864	0.8090
C	2.6877	-4.6246	0.2591
C	2.2632	-3.3026	0.0578
C	3.1756	-2.2966	-0.5153
C	0.9554	-2.9432	0.4163
C	0.0781	-3.8891	0.9674
C	-1.2916	-3.4956	1.3405
C	0.5233	-5.2063	1.1569
C	2.2707	6.2380	6.9595
N	1.2467	6.9643	7.4403
C	0.0443	6.7371	6.8832
C	-0.1834	5.8113	5.8639
C	0.8892	5.0545	5.3649
C	2.1480	5.2908	5.9427
C	0.7056	4.0533	4.2865
C	-0.4685	3.2881	4.2101
C	-0.6456	2.3299	3.1992
C	-1.8728	1.5126	3.1319
C	0.3733	2.1425	2.2524
C	1.5544	2.8976	2.3091
C	2.6118	2.6929	1.3035
C	1.7094	3.8485	3.3289
H	-4.1327	-4.6273	1.7127
H	-3.5750	-4.1999	3.2951
H	-4.5414	-2.6749	-1.3152
H	-3.7880	-3.8734	-0.2954
H	-6.0106	-4.6846	-1.0985
H	-6.8205	-3.2816	-0.3655
H	-6.0600	-4.4944	0.6687
H	-6.4052	0.3241	-0.5456
H	-6.2029	-1.2963	-1.1220
H	-5.0932	1.8450	0.2796
H	-4.5404	2.2805	1.8766
H	-7.3632	1.1995	1.2308
H	-6.8041	1.6432	2.8459
H	-6.9493	2.8913	1.5877
H	-4.1159	0.3467	4.8961
H	-4.8670	1.5324	3.8834
H	-2.4780	-1.0507	4.7111
H	-2.2838	-2.6859	4.1338
H	-4.5784	-3.2924	5.0510
H	-4.7741	-1.6372	5.6349
H	-3.4984	-2.6697	6.3193
H	6.1709	-1.5933	-0.8045
H	5.5983	-1.9970	-2.3875
H	3.7531	-1.7979	-3.4797
H	3.0025	-0.5722	-4.4692
H	6.0371	-1.1534	-4.3937
H	5.2799	0.0902	-5.3928
H	4.9136	-1.6243	-5.6893
H	3.5489	1.4138	-5.1477
H	3.3439	3.0214	-4.5392
H	3.0587	4.3294	-1.1748
H	2.4742	3.9181	-2.7669
H	5.3325	4.9174	-2.1478
H	4.7448	4.5000	-3.7598
H	4.0275	5.8727	-2.8864
H	4.9407	4.1330	-0.1101
H	5.6603	2.9165	0.8907
H	5.3109	-0.6817	0.9672
H	5.1414	0.9471	1.5700
H	7.5264	0.2035	1.7110
H	7.3978	1.5636	0.5723
H	7.5690	-0.0827	-0.0435
H	-2.9430	4.1553	-8.9811
H	-5.7204	1.1239	-8.5342
H	-4.7258	0.4012	-6.3775
H	-1.8412	3.5902	-6.8294
H	-0.5246	2.0062	-5.7528
H	1.3103	1.0732	-2.5878
H	-0.8775	0.4907	-1.7497
H	-3.0201	-0.1086	-0.8071
H	-4.4120	0.9775	-4.1413
H	2.0210	-9.6112	3.1775
H	4.3367	-9.3923	-0.2418
H	3.5650	-7.0823	-0.7299
H	1.1764	-7.2963	2.8672
H	3.7165	-4.8744	-0.0007
H	2.7609	-1.2782	-0.6417
H	0.6164	-1.9141	0.2658
H	-1.5679	-2.4416	1.1459
H	-0.1828	-5.9293	1.5652
H	3.2461	6.4217	7.4192
H	-0.7852	7.3342	7.2728
H	-1.1853	5.6979	5.4480
H	3.0226	4.7235	5.6217
H	-1.2600	3.4007	4.9511
H	-1.9214	0.7759	2.3068
H	0.2453	1.3983	1.4609
H	2.4060	1.9324	0.5263
H	2.6252	4.4395	3.3401
