141

C	-3.3325	0.7642	4.5583
N	-2.0978	1.5469	4.4738
C	-3.6702	-0.2107	3.4439
C	-4.4210	0.2263	2.3318
C	-4.7835	-0.6961	1.3268
C	-4.3519	-2.0377	1.4015
C	-3.5930	-2.4664	2.5123
C	-3.2302	-1.5496	3.5222
C	-2.3800	-2.0052	4.6951
C	-3.2101	-2.5235	5.8823
C	-3.1667	-3.9197	2.6208
N	-1.8949	-4.3421	2.0315
C	-4.7153	-3.0194	0.3006
C	-6.0470	-3.7504	0.5494
C	-5.6451	-0.2429	0.1618
N	-5.0035	0.2735	-1.0468
C	-4.8507	1.6786	2.2250
C	-6.2176	1.9580	2.8737
C	4.7877	3.0378	-0.3260
N	3.9175	3.2491	0.8322
C	4.3865	2.0344	-1.3938
C	3.5989	2.4526	-2.4887
C	3.2827	1.5355	-3.5138
C	3.6995	0.1904	-3.4192
C	4.4862	-0.2222	-2.3223
C	4.8118	0.6918	-1.2962
C	5.6337	0.2370	-0.1021
C	7.1505	0.3859	-0.3164
C	4.9800	-1.6557	-2.2435
N	4.1588	-2.6596	-1.5650
C	3.3134	-0.8055	-4.4987
C	4.3349	-0.8877	-5.6463
C	2.4884	1.9967	-4.7237
N	1.0264	1.9225	-4.6912
C	3.1046	3.8869	-2.5699
C	4.0791	4.8307	-3.2966
C	-4.5970	2.5902	-8.0143
S	-5.9947	3.1458	-7.1788
C	-5.3229	2.7391	-5.6552
C	-4.0554	2.1928	-5.7710
C	-3.6474	2.1165	-7.1431
C	-3.2364	1.7483	-4.6269
C	-1.8351	1.8096	-4.6803
C	-1.0475	1.3963	-3.5945
C	0.4222	1.4752	-3.6549
C	-1.6746	0.9169	-2.4341
C	-3.0744	0.8471	-2.3582
C	-3.7282	0.3363	-1.1391
C	-3.8408	1.2581	-3.4589
C	3.7561	-8.8334	0.5341
S	2.2285	-9.6254	0.5485
C	1.3850	-8.1354	0.4654
C	2.2429	-7.0493	0.4234
C	3.6132	-7.4698	0.4607
C	1.7997	-5.6444	0.3480
C	2.5920	-4.6799	-0.2929
C	2.1835	-3.3401	-0.3762
C	3.0275	-2.3409	-1.0565
C	0.9539	-2.9630	0.1856
C	0.1442	-3.9104	0.8326
C	-1.1402	-3.5006	1.4306
C	0.5795	-5.2414	0.9135
C	1.9778	5.6919	7.4917
S	2.8333	6.8578	6.5590
C	2.5715	5.9822	5.1087
C	1.8435	4.8234	5.3217
C	1.5041	4.6712	6.7060
C	1.4710	3.8676	4.2621
C	0.2875	3.1199	4.3576
C	-0.0747	2.2042	3.3578
C	-1.3194	1.4247	3.4650
C	0.7599	2.0397	2.2419
C	1.9480	2.7775	2.1256
C	2.8294	2.5863	0.9600
C	2.2931	3.6820	3.1400
H	-4.1446	1.4954	4.6875
H	-3.2923	0.2418	5.5256
H	-1.7392	-1.1778	5.0306
H	-1.6850	-2.7899	4.3651
H	-3.8355	-3.3789	5.5903
H	-3.8883	-1.7482	6.2657
H	-2.5598	-2.8445	6.7079
H	-3.9329	-4.5773	2.1833
H	-3.1262	-4.2305	3.6755
H	-4.7635	-2.4929	-0.6628
H	-3.9101	-3.7580	0.1830
H	-6.8836	-3.0423	0.6314
H	-6.2717	-4.4478	-0.2697
H	-6.0205	-4.3242	1.4865
H	-6.2995	-1.0618	-0.1730
H	-6.3487	0.5384	0.4862
H	-4.0897	2.3240	2.6852
H	-4.8798	1.9783	1.1680
H	-7.0125	1.3578	2.4090
H	-6.2117	1.7069	3.9438
H	-6.4906	3.0180	2.7753
H	4.9375	4.0316	-0.7738
H	5.7761	2.7840	0.0854
H	5.3336	0.8031	0.7908
H	5.3988	-0.8111	0.1309
H	7.7080	0.0478	0.5683
H	7.4927	-0.2030	-1.1793
H	7.4267	1.4314	-0.5132
H	5.9668	-1.6957	-1.7585
H	5.1672	-2.0532	-3.2523
H	3.1845	-1.8018	-4.0529
H	2.3267	-0.5447	-4.9062
H	5.3264	-1.1884	-5.2796
H	4.0176	-1.6176	-6.4041
H	4.4591	0.0850	-6.1427
H	2.7310	3.0422	-4.9659
H	2.7986	1.4403	-5.6207
H	2.1285	3.9128	-3.0741
H	2.9147	4.2691	-1.5571
H	5.0571	4.8616	-2.7962
H	3.6825	5.8550	-3.3304
H	4.2593	4.5026	-4.3301
H	-4.5554	2.6317	-9.0989
H	-5.8768	2.9475	-4.7444
H	-2.6957	1.6987	-7.4675
H	-1.3245	2.2009	-5.5602
H	0.9646	1.1293	-2.7541
H	-1.0676	0.5951	-1.5830
H	-3.0553	0.0138	-0.3214
H	-4.9244	1.1655	-3.3882
H	4.6730	-9.4126	0.5942
H	0.2998	-8.1271	0.4177
H	4.4567	-6.7814	0.4605
H	3.5388	-4.9526	-0.7586
H	2.6247	-1.3109	-1.0998
H	0.6251	-1.9218	0.1222
H	-1.4062	-2.4311	1.3271
H	-0.0501	-5.9530	1.4477
H	1.8806	5.8161	8.5664
H	2.9389	6.3729	4.1640
H	0.9533	3.8197	7.1022
H	-0.3884	3.2459	5.2032
H	-1.5353	0.7340	2.6276
H	0.4843	1.3273	1.4591
H	2.4965	1.8404	0.2128
H	3.2362	4.2201	3.0443
