90

C	-2.3839	-3.6597	-0.1061
H	-2.7686	-4.5590	-0.1631
C	-3.4724	-2.5731	-0.1195
H	-4.3658	-2.9751	-0.1083
C	-2.2385	-2.4076	1.8531
C	-2.1620	-2.3261	-2.0360
C	-4.1637	1.1151	-0.0505
H	-5.1436	1.1623	-0.0632
C	-3.5180	2.5141	-0.0076
H	-4.1998	3.2166	0.0202
C	-2.8958	1.3470	1.8941
C	-2.8796	1.4382	-1.9831
C	-0.2360	4.3947	0.0682
H	-0.4660	5.3496	0.0678
C	1.2946	4.1778	0.0857
H	1.7773	5.0308	0.1229
C	0.3714	3.2151	1.9690
C	0.4093	3.2227	-1.8608
C	4.0274	1.5481	0.1096
H	4.8572	2.0691	0.0877
C	4.3238	0.0282	0.1130
H	5.2861	-0.1587	0.0997
C	3.1386	0.6050	2.0542
C	3.1343	0.6036	-1.8195
C	2.7373	-3.3815	0.0071
H	3.4979	-3.9960	0.0903
C	1.3765	-4.1569	-0.0308
H	1.5130	-5.1259	-0.0509
C	1.4614	-2.8680	1.8976
C	1.6467	-2.8349	-1.9707
C	-4.0343	-0.7964	1.6437
H	-4.9615	-0.9704	1.4196
H	-3.9587	-0.8010	2.6106
C	-4.0109	-0.7338	-1.8238
H	-3.9167	-0.6926	-2.7874
H	-4.9476	-0.8887	-1.6279
C	-2.0359	3.6567	1.7305
H	-2.5085	4.4629	1.4754
H	-2.0467	3.6036	2.6999
C	-2.0186	3.7200	-1.6976
H	-1.9842	3.7247	-2.6674
H	-2.4826	4.5234	-1.4125
C	2.8098	3.0339	1.8070
H	3.4471	3.7228	1.5590
H	2.7563	3.0215	2.7752
C	2.8694	3.0327	-1.6073
H	3.5331	3.6870	-1.3362
H	2.8722	2.9940	-2.5764
C	3.6745	-1.7719	1.7762
H	4.5198	-2.1890	1.5502
H	3.5841	-1.7908	2.7403
C	3.8176	-1.7437	-1.6476
H	3.8123	-1.6738	-2.6155
H	4.6755	-2.1051	-1.3805
C	-0.5669	-4.2310	1.6118
H	-0.6655	-5.1499	1.3176
H	-0.5877	-4.2270	2.5816
C	-0.4794	-4.0925	-1.8147
H	-0.6186	-5.0288	-1.6027
H	-0.4592	-4.0092	-2.7807
N	-1.6896	-3.4574	1.1143
N	-3.2196	-1.8516	1.1084
N	-1.5895	-3.3285	-1.3012
N	-3.2567	-1.8423	-1.3424
N	-3.6695	0.5190	1.1499
N	-2.7412	2.5063	1.1886
N	-3.6290	0.5371	-1.2701
N	-2.7661	2.5643	-1.2593
N	-0.6607	3.7532	1.2796
N	1.5117	3.3953	1.2784
N	-0.6442	3.7452	-1.1705
N	1.5557	3.4747	-1.1560
N	3.3171	1.7489	1.3567
N	3.6980	-0.4307	1.3436
N	3.2478	1.7603	-1.0961
N	3.6688	-0.4272	-1.0872
N	2.5944	-2.5452	1.1867
N	0.7206	-3.7396	1.1747
N	2.7754	-2.6611	-1.2412
N	0.8038	-3.6701	-1.2753
O	-1.8783	-2.0626	2.9528
O	-1.7966	-1.9152	-3.1369
O	-2.4265	1.1018	3.0061
O	-2.4294	1.2360	-3.1093
O	0.2822	2.6569	3.0790
O	0.3444	2.6993	-2.9588
O	2.6178	0.5056	3.1520
O	2.6693	0.5087	-2.9257
O	1.1681	-2.4417	3.0091
O	1.4246	-2.4041	-3.0891
