126

O	-3.5602	1.4839	2.9923
O	-4.1428	2.0375	-3.0363
O	-0.7495	4.0455	2.9913
O	-1.3874	4.0093	-3.0098
O	2.7955	3.7613	2.9910
O	2.3056	3.0809	-3.0107
O	3.8828	0.4578	2.8778
O	4.2703	-0.0020	-3.1228
O	2.4845	-3.2246	3.1478
O	2.7420	-3.3543	-2.9529
O	-0.9325	-4.1942	2.9525
O	-0.5328	-4.1299	-2.9791
O	-3.8546	-2.2405	3.1314
O	-3.4180	-1.6640	-2.9456
N	-4.0160	2.9711	1.2679
N	-5.0538	0.9874	1.3114
N	-4.4047	3.2470	-1.1156
N	-5.0723	1.1409	-1.1416
N	-0.0906	5.2763	1.1319
N	-2.1908	4.5837	1.2784
N	-0.3193	5.1020	-1.2642
N	-2.4885	4.7464	-1.1382
N	4.0347	3.5948	1.0737
N	2.3092	4.9345	1.0917
N	3.8865	3.3643	-1.3538
N	2.0443	4.6093	-1.3106
N	4.7537	-0.8091	1.1551
N	5.0328	1.3857	1.1185
N	5.1562	-0.9983	-1.2409
N	4.9731	1.2100	-1.2956
N	2.4084	-4.6818	1.3567
N	3.9560	-3.0845	1.3708
N	2.4551	-4.6827	-1.0794
N	4.0587	-3.1505	-1.0648
N	-2.1393	-4.9908	1.1552
N	0.0726	-5.2801	1.1792
N	-1.9168	-4.7394	-1.2395
N	0.1790	-5.4861	-1.2604
N	-4.8781	-1.4193	1.2332
N	-4.0116	-3.4423	1.1807
N	-4.8832	-1.2603	-1.1967
N	-3.7445	-3.1827	-1.2244
C	-4.1568	1.7671	1.9447
C	-4.9570	3.0867	0.2037
H	-5.6489	3.7789	0.3999
C	-5.5807	1.6518	0.1474
H	-6.5786	1.6840	0.1623
C	-4.4922	2.1498	-1.8730
C	-3.3889	4.1347	1.9028
H	-3.1867	3.9109	2.8445
H	-4.0406	4.8844	1.9082
C	-3.8333	4.4883	-1.6090
H	-4.4157	5.2415	-1.3302
H	-3.8252	4.4664	-2.5998
C	-0.9716	4.6039	1.9073
C	-0.6924	5.7856	-0.0368
H	-0.5581	6.7718	-0.1145
C	-2.2059	5.4228	0.0963
H	-2.7760	6.2333	0.2175
C	-1.4083	4.5426	-1.9168
C	1.1902	5.7117	1.6367
H	1.3178	6.6662	1.4090
H	1.1928	5.6321	2.6236
C	0.9427	5.3259	-1.9144
H	0.8651	5.0572	-2.8625
H	1.1440	6.2964	-1.8914
C	3.0323	4.0378	1.8174
C	4.0933	4.2419	-0.2152
H	4.9269	4.7820	-0.3141
C	2.8606	5.1234	-0.2157
H	3.1037	6.0809	-0.3681
C	2.7014	3.6164	-1.9958
C	5.0801	2.7557	1.6042
H	5.9576	3.1490	1.3652
H	5.0126	2.7479	2.5900
C	4.9055	2.5069	-1.9075
H	5.7848	2.9534	-1.8066
H	4.7334	2.3928	-2.8769
C	4.4850	0.3599	1.8203
C	5.6629	-0.5707	0.0610
H	6.5701	-0.9490	0.2455
C	5.6983	0.9432	-0.0722
H	6.6360	1.2861	-0.1190
C	4.7368	0.0565	-1.9919
C	4.7935	-2.0658	1.9161
H	4.5131	-1.8860	2.8484
H	5.7276	-2.3966	1.9406
C	5.1119	-2.3568	-1.6804
H	4.9858	-2.3705	-2.6634
H	5.9838	-2.7806	-1.4843
C	2.8899	-3.6199	2.0656
C	3.1643	-4.9405	0.1556
H	3.5640	-5.8565	0.1654
C	4.2542	-3.8460	0.1730
H	5.1666	-4.2491	0.2201
C	3.0376	-3.6945	-1.8200
C	1.3396	-5.5137	1.8252
H	1.5935	-6.4614	1.6889
H	1.2288	-5.3681	2.7977
C	1.5314	-5.6426	-1.6785
H	1.8299	-6.5583	-1.4489
H	1.5734	-5.5529	-2.6645
C	-0.9914	-4.7555	1.8714
C	-1.8687	-5.6433	-0.1002
H	-2.4399	-6.4511	-0.2370
C	-0.3722	-5.9981	-0.0033
H	-0.2299	-6.9842	0.0889
C	-0.7301	-4.7201	-1.9381
C	-3.4563	-4.6998	1.6616
H	-4.0653	-5.4371	1.4049
H	-3.4196	-4.6728	2.6504
C	-3.1476	-4.3112	-1.8649
H	-3.7914	-5.0616	-1.8551
H	-2.9641	-4.0849	-2.8115
C	-4.2125	-2.3452	1.9644
C	-5.3625	-1.9619	-0.0392
H	-6.3580	-2.0480	-0.0455
C	-4.6782	-3.3243	-0.1032
H	-5.3330	-4.0638	-0.2555
C	-3.9709	-1.9878	-1.8946
C	-5.5035	-0.2437	1.8269
H	-5.3389	-0.2564	2.8022
H	-6.4813	-0.3040	1.6888
C	-5.5367	-0.0953	-1.7414
H	-5.3741	-0.0613	-2.7186
H	-6.5114	-0.1787	-1.5990
