108

N	3.2319	4.2329	2.2293
N	1.9062	5.4502	-0.0449
N	-2.5248	-0.9852	5.0980
N	4.5617	-3.5094	-0.4614
N	5.0872	-1.9398	1.9213
N	-4.1374	3.7300	-1.5169
N	-5.5114	1.7192	0.0568
N	-1.4747	-5.2251	-1.9636
N	0.1947	-0.2290	5.7660
N	0.7405	1.9922	-5.3680
N	-3.6631	-4.4581	-0.2210
N	1.5897	-0.7781	-5.4961
C	3.1764	1.8389	2.5467
C	0.0874	4.3133	-1.1590
C	-3.1349	-1.4866	2.8150
C	2.7779	-2.8920	-1.9689
C	3.7924	0.6093	2.2699
C	0.9050	3.7885	-2.1746
C	-3.6457	-0.2008	2.5632
C	1.8592	-3.8009	-1.4148
C	3.3530	-0.5695	2.8967
C	0.3483	3.0606	-3.2364
C	-4.2612	0.0960	1.3383
C	0.5849	-3.9627	-1.9776
C	2.2815	-0.5098	3.7999
C	-1.0411	2.8482	-3.2721
C	-4.3549	-0.9023	0.3533
C	0.2268	-3.1985	-3.1019
C	1.6547	0.7150	4.0875
C	-1.8695	3.3656	-2.2663
C	-3.8489	-2.1888	0.5904
C	1.1317	-2.2882	-3.6657
C	2.1039	1.8831	3.4539
C	-1.2964	4.0939	-1.2086
C	-3.2356	-2.4729	1.8224
C	2.4051	-2.1369	-3.0904
C	3.6769	3.0627	1.8894
C	0.6545	5.1024	-0.0477
C	-2.5047	-1.8230	4.1069
C	4.1309	-2.7265	-1.4031
C	3.6972	5.4762	1.6199
C	2.5176	6.2371	1.0229
C	-1.9268	-1.2682	6.4008
C	5.8934	-3.3974	0.1302
C	4.0052	-1.8690	2.6339
C	1.2324	2.5418	-4.3001
C	-4.8085	1.4487	1.1147
C	-0.3474	-4.9427	-1.3857
C	5.7796	-3.1954	1.6366
C	1.5665	1.4715	-6.4555
C	-6.0850	3.0354	-0.2109
C	-2.4307	-6.1919	-1.4283
C	0.5402	0.7992	5.0533
C	-3.3277	3.1455	-2.3460
C	-3.9847	-3.2223	-0.4567
C	0.7322	-1.5179	-4.8604
C	-0.8917	-0.2010	6.7420
C	-5.5874	3.5567	-1.5551
C	-3.7844	-5.5220	-1.2142
C	1.2520	-0.0023	-6.6875
H	4.4559	5.2851	0.8273
H	4.1714	6.1027	2.4046
H	4.6184	0.5750	1.5693
H	1.9768	3.9511	-2.1468
H	-3.5728	0.5683	3.3222
H	2.1362	-4.3886	-0.5472
H	1.7854	6.4770	1.8258
H	2.8844	7.1941	0.5956
H	1.9416	-1.4190	4.2829
H	-1.4821	2.2862	-4.0873
H	-4.8277	-0.6832	-0.5964
H	-0.7561	-3.3156	-3.5448
H	-1.4455	-2.2722	6.4207
H	-2.7262	-1.2557	7.1706
H	1.6203	2.8272	3.6750
H	-1.9272	4.4975	-0.4253
H	-2.8404	-3.4633	2.0158
H	3.1126	-1.4353	-3.5185
H	6.4688	-2.5545	-0.3158
H	4.4424	2.9737	1.1262
H	0.0050	5.4094	0.7643
H	-2.0397	-2.7954	4.2278
H	4.7759	-1.9499	-1.8000
H	6.4513	-4.3360	-0.0682
H	3.5774	-2.7676	3.0636
H	2.3060	2.6455	-4.1871
H	-4.6341	2.2168	1.8602
H	-0.0695	-5.4429	-0.4647
H	6.7994	-3.1467	2.0734
H	5.2517	-4.0643	2.0899
H	2.6513	1.5913	-6.2379
H	1.3369	2.0402	-7.3813
H	-5.8268	3.7650	0.5890
H	-7.1912	2.9427	-0.2463
H	-2.0769	-6.6283	-0.4677
H	-2.5485	-7.0197	-2.1593
H	0.0224	1.7441	5.1774
H	-3.7191	2.4995	-3.1242
H	-4.3787	-2.9399	-1.4265
H	-0.2889	-1.5936	-5.2178
H	-1.3848	0.7967	6.7766
H	-0.4736	-0.4123	7.7482
H	-6.0597	4.5407	-1.7583
H	-5.8942	2.8539	-2.3622
H	-4.1641	-5.1337	-2.1856
H	-4.5065	-6.2785	-0.8406
H	1.8623	-0.3720	-7.5382
H	0.1788	-0.1151	-6.9588
