126

N	5.0154	2.2375	-1.8300
N	3.7033	1.3849	-4.2597
N	2.6729	-3.6045	3.5711
N	4.3156	-1.2273	3.5664
C	5.7460	2.0558	-3.0834
C	4.8126	2.3367	-4.2660
C	6.9456	3.0026	-3.1070
C	4.0547	-3.6137	4.0539
C	4.4091	-2.2355	4.6193
C	4.2040	-4.6926	5.1270
C	4.8811	1.3042	-0.9372
C	4.1461	1.5545	0.3179
C	3.4332	2.7492	0.5213
C	2.7630	2.9850	1.7306
C	2.7996	2.0081	2.7403
C	3.5066	0.8113	2.5526
C	4.1731	0.5888	1.3348
C	3.5502	-0.1826	3.6437
C	2.4568	1.7421	-4.2146
C	1.3764	0.7347	-4.2247
C	1.6586	-0.6388	-4.1308
C	2.3406	-3.8804	2.3477
H	6.6103	4.0602	-3.0305
H	6.1278	1.0128	-3.1738
H	4.4437	3.3860	-4.2159
H	5.3727	2.2152	-5.2176
H	7.5209	2.8725	-4.0492
H	5.2501	-4.7239	5.4985
H	5.3358	0.3331	-1.0956
H	3.4051	3.5025	-0.2570
H	2.2855	2.1790	3.6789
H	4.7231	-0.3317	1.1781
H	2.9457	-0.0172	4.5286
H	2.1930	2.7942	-4.1929
H	2.6841	-0.9764	-4.0371
H	3.1033	-4.1499	1.6248
H	7.6181	2.7784	-2.2520
H	4.7632	-3.8509	3.2267
H	3.7359	-1.9913	5.4720
H	5.4532	-2.2489	5.0003
H	3.9553	-5.6861	4.6981
H	3.5207	-4.4916	5.9801
N	-4.2696	2.9282	-2.5883
N	-2.7066	1.8861	-4.7848
N	1.5529	4.5814	3.0809
N	-1.3165	4.8081	2.8292
C	-4.3786	3.4683	-3.9433
C	-4.0761	2.3633	-4.9607
C	-5.7874	4.0227	-4.1513
C	0.8479	5.8371	3.3384
C	-0.5648	5.5363	3.8490
C	1.6320	6.6504	4.3683
C	-3.4598	3.4029	-1.6914
C	-3.4088	2.8245	-0.3336
C	-4.1102	1.6496	-0.0133
C	-4.0747	1.1287	1.2887
C	-3.3191	1.7870	2.2737
C	-2.6142	2.9599	1.9688
C	-2.6579	3.4697	0.6595
C	-1.8526	3.6431	3.0339
C	-2.4081	0.6473	-4.5410
C	-1.0024	0.2211	-4.3849
C	0.0450	1.1569	-4.3451
C	2.0472	4.2616	1.9234
H	-5.8876	4.4482	-5.1725
H	-3.6540	4.3000	-4.0989
H	-4.8108	1.5332	-4.8471
H	-4.1763	2.7701	-5.9905
H	-5.9865	4.8300	-3.4150
H	1.1181	7.6150	4.5686
H	-2.8279	4.2521	-1.9255
H	-4.6934	1.1424	-0.7732
H	-3.2845	1.3935	3.2833
H	-2.1173	4.3766	0.4122
H	-1.7654	3.1680	4.0044
H	-3.1936	-0.0974	-4.4715
H	-0.1731	2.2164	-4.4176
H	1.9596	4.9465	1.0885
H	-6.5462	3.2213	-4.0162
H	0.7664	6.4446	2.4078
H	-0.5080	4.9580	4.7991
H	-1.0932	6.4903	4.0586
H	2.6480	6.8711	3.9783
H	1.7301	6.0855	5.3201
N	-0.2553	-5.4756	-1.8616
N	0.0434	-3.9271	-4.2842
N	-4.9669	-0.5107	2.8226
N	-3.7359	-3.1166	3.0304
C	-0.5710	-6.0266	-3.1796
C	0.3152	-5.3623	-4.2374
C	-0.3450	-7.5384	-3.1580
C	-5.7288	-1.7018	3.1961
C	-4.8120	-2.6908	3.9217
C	-6.8959	-1.2895	4.0931
C	-1.1298	-4.8905	-1.1015
C	-0.7538	-4.3689	0.2277
C	0.5870	-4.3422	0.6482
C	0.9259	-3.8699	1.9248
C	-0.0895	-3.4109	2.7815
C	-1.4320	-3.4315	2.3756
C	-1.7559	-3.9067	1.0932
C	-2.4768	-2.9695	3.3103
C	0.9547	-3.0218	-4.0981
C	0.6237	-1.5845	-4.1692
C	-0.7065	-1.1465	-4.2910
C	-4.8460	-0.0913	1.6001
H	0.7133	-7.7713	-2.9085
H	-1.6373	-5.8406	-3.4425
H	1.3874	-5.5633	-4.0138
H	0.0863	-5.7939	-5.2362
H	-0.5893	-7.9785	-4.1478
H	-7.5579	-0.5831	3.5485
H	-2.1604	-4.8039	-1.4272
H	1.3692	-4.6968	-0.0118
H	0.1618	-3.0441	3.7707
H	-2.7895	-3.9278	0.7692
H	-2.1785	-2.5223	4.2526
H	1.9815	-3.3159	-3.9093
H	-1.5141	-1.8682	-4.3212
H	-5.3359	-0.6240	0.7925
H	-1.0025	-8.0062	-2.3939
H	-6.1484	-2.2045	2.2936
H	-4.4080	-2.2225	4.8481
H	-5.3964	-3.5887	4.2188
H	-6.5241	-0.7915	5.0142
H	-7.4952	-2.1802	4.3788
