168

N	-4.0135	0.4218	-4.1233
C	-1.1552	0.1129	-4.2826
C	-1.7784	1.2990	-3.8590
C	-3.2458	1.3853	-3.7159
C	-5.4730	0.4532	-4.0187
C	-6.0790	0.4308	-5.4312
C	-7.6108	0.3883	-5.3738
H	-1.7515	-0.7653	-4.5005
H	-3.6796	2.2811	-3.2856
H	-5.8077	1.3867	-3.5070
H	-5.7622	1.3425	-5.9829
H	-5.7049	-0.4553	-5.9902
H	-7.9946	1.3306	-4.9215
H	-8.0150	0.3153	-6.4058
N	-1.7324	3.1297	4.5274
C	0.0089	3.7783	2.3266
C	0.3661	2.8899	3.3553
C	-0.5884	2.5252	4.4198
C	-2.7141	2.8210	5.5668
C	-2.9065	4.0562	6.4602
C	-3.9840	3.8063	7.5233
H	-0.9888	4.2021	2.2987
H	-0.3111	1.7570	5.1341
H	-2.3563	1.9778	6.2041
H	-1.9471	4.2987	6.9672
H	-3.1959	4.9325	5.8389
H	-3.6427	3.0088	8.2199
H	-4.1391	4.7339	8.1141
N	0.3219	-5.5219	1.6439
C	2.3294	-3.4618	1.5096
C	1.7642	-4.0616	0.3708
C	0.6792	-5.0556	0.4862
C	-0.7370	-6.5150	1.8210
C	-0.1297	-7.7977	2.4117
C	-1.2141	-8.8465	2.6854
H	1.9625	-3.7188	2.4960
H	0.1985	-5.4147	-0.4164
H	-1.2058	-6.7673	0.8406
H	0.6091	-8.2195	1.6964
H	0.4057	-7.5627	3.3586
H	-1.6709	-9.1721	1.7249
H	-0.7523	-9.7368	3.1640
N	-5.4257	-0.6760	-1.8418
C	-4.3566	-0.2614	0.7992
C	-4.1954	-1.4598	0.0830
C	-4.6913	-1.5994	-1.3006
C	-5.9558	-0.7616	-3.2034
C	-7.4912	-0.7963	-3.1444
C	-8.0971	-0.8121	-4.5537
H	-4.8429	0.5876	0.3330
H	-4.4543	-2.5004	-1.8555
H	-5.6014	-1.6935	-3.7031
H	-7.8190	-1.7082	-2.5997
H	-7.8695	0.0898	-2.5881
H	-7.8166	-1.7558	-5.0708
H	-9.2052	-0.7795	-4.4768
N	3.4654	-3.0830	-3.4312
C	2.2491	-3.7180	-0.8991
C	3.2972	-2.7916	-1.0393
C	3.8355	-2.4371	-2.3678
C	3.9707	-2.7870	-4.7725
C	4.7430	-4.0071	-5.2995
C	5.2314	-3.7725	-6.7347
H	1.8125	-4.1792	-1.7774
H	4.5689	-1.6425	-2.4432
H	4.6669	-1.9152	-4.7437
H	5.6207	-4.1992	-4.6451
H	4.0917	-4.9090	-5.2726
H	5.9757	-2.9459	-6.7465
H	5.7339	-4.6913	-7.1064
N	1.4091	5.5681	-0.5503
C	2.2273	3.5843	1.3706
C	0.9342	4.1333	1.3347
C	0.5360	5.0885	0.2820
C	1.0780	6.5246	-1.6064
C	1.8218	7.8428	-1.3425
C	1.5644	8.8564	-2.4649
H	2.9513	3.8514	0.6088
H	-0.4991	5.4067	0.2260
H	-0.0185	6.7345	-1.6132
H	1.4765	8.2752	-0.3781
H	2.9149	7.6527	-1.2601
H	0.4887	9.1402	-2.4720
H	2.1593	9.7748	-2.2745
N	4.4019	1.4685	3.4287
C	1.6605	2.3498	3.3774
C	2.5994	2.6963	2.3908
C	3.9722	2.1559	2.4146
C	5.7540	0.9175	3.5155
C	6.4907	1.5719	4.6954
C	7.8903	0.9720	4.8735
H	1.9363	1.6642	4.1709
H	4.6331	2.3623	1.5792
H	6.3257	1.1332	2.5814
H	6.5842	2.6642	4.5109
H	5.9057	1.4316	5.6323
H	8.5163	1.2145	3.9871
H	8.3724	1.4238	5.7666
N	2.1190	-1.2418	-5.2207
C	1.0119	1.1923	-4.1529
C	0.2383	0.0540	-4.4370
C	0.8609	-1.1991	-4.9074
C	2.7904	-2.4495	-5.7031
C	3.2857	-2.2111	-7.1382
C	4.0616	-3.4256	-7.6633
H	2.0883	1.1578	-4.2675
H	0.2440	-2.0848	-5.0123
H	2.0827	-3.3125	-5.7139
H	2.4138	-2.0240	-7.8033
H	3.9401	-1.3114	-7.1698
H	3.3784	-4.2984	-7.7463
H	4.4544	-3.1995	-8.6782
N	-2.4349	-4.7736	2.1386
C	-3.5633	-2.5494	0.6992
C	-3.1021	-2.4548	2.0233
C	-2.4569	-3.6009	2.6942
C	-1.8216	-5.9482	2.7581
C	-2.9082	-7.0020	3.0263
C	-2.3015	-8.2843	3.6087
H	-3.4384	-3.4732	0.1464
H	-2.0194	-3.4566	3.6761
H	-1.3486	-5.6756	3.7310
H	-3.6495	-6.5921	3.7459
H	-3.4445	-7.2415	2.0812
H	-1.8686	-8.0711	4.6099
H	-3.1035	-9.0433	3.7366
N	5.0381	-1.2142	2.5371
C	3.8509	-2.2017	0.1048
C	3.3757	-2.5359	1.3852
C	3.9642	-1.9418	2.6014
C	5.6733	-0.6097	3.7073
C	7.0796	-1.2065	3.8804
C	7.8180	-0.5494	5.0537
H	4.6589	-1.4863	-0.0027
H	3.5014	-2.1432	3.5612
H	5.0844	-0.8264	4.6294
H	6.9961	-2.2984	4.0713
H	7.6696	-1.0660	2.9468
H	7.2946	-0.7879	6.0059
H	8.8476	-0.9605	5.1165
N	-3.8524	1.1955	4.1256
C	-3.2699	-1.2526	2.7256
C	-3.9014	-0.1522	2.1211
C	-4.1077	1.1120	2.8554
C	-4.0470	2.4156	4.9088
C	-5.1222	2.1620	5.9778
C	-5.3096	3.3919	6.8745
H	-2.9131	-1.1795	3.7463
H	-4.5008	1.9703	2.3221
H	-4.3932	3.2500	4.2538
H	-6.0873	1.9246	5.4814
H	-4.8346	1.2867	6.6038
H	-5.7107	4.2361	6.2720
H	-6.0488	3.1565	7.6700
N	0.7040	4.7274	-3.2321
C	-0.9934	2.4269	-3.5792
C	0.4026	2.3823	-3.7288
C	1.2409	3.5680	-3.4627
C	1.4812	5.9392	-2.9736
C	1.2161	6.9568	-4.0953
C	1.9527	8.2750	-3.8295
H	-1.4746	3.3412	-3.2522
H	2.3201	3.4646	-3.4856
H	2.5728	5.7084	-2.9582
H	1.5636	6.5355	-5.0638
H	0.1243	7.1525	-4.1797
H	3.0509	8.1032	-3.8626
H	1.6953	9.0057	-4.6258
