150

N	-5.2499	-2.5704	-0.6737
N	-5.8456	0.1879	0.6465
N	-2.2432	5.3988	-0.6660
N	-1.7048	2.4553	5.0688
C	-3.0416	-3.5130	-0.9641
C	-2.8858	-3.0096	-2.2669
H	-3.6634	-2.3968	-2.7074
C	-4.2311	-3.1854	-0.1533
H	-4.2315	-3.4391	0.9010
C	-4.2201	1.9539	0.9464
C	-3.8773	1.5579	2.2511
H	-4.3375	0.6793	2.6884
C	-2.9138	2.2660	2.9828
C	-2.2962	3.3878	2.4037
H	-1.5328	3.9290	2.9510
C	-2.6275	3.7945	1.1027
C	-3.5952	3.0751	0.3818
H	-3.8428	3.3673	-0.6328
C	-5.1664	1.1679	0.1304
H	-5.2657	1.4001	-0.9241
C	-2.5127	1.7738	4.3147
H	-2.8795	0.8085	4.6467
C	-1.8981	4.9224	0.4913
H	-1.0385	5.3331	1.0116
C	-6.4029	-2.1394	0.1159
H	-6.2330	-2.2970	1.2080
C	-6.7168	-0.6774	-0.1477
H	-6.6213	-0.4624	-1.2394
C	-8.1765	-0.5296	0.2544
H	-8.6713	0.2754	-0.3312
H	-8.2575	-0.2932	1.3393
C	-8.8164	-1.8931	-0.0212
H	-9.4885	-1.8344	-0.9051
H	-9.4099	-2.2231	0.8594
C	-7.6721	-2.8729	-0.2925
H	-7.7956	-3.8105	0.2915
H	-7.6438	-3.1206	-1.3773
C	-1.2054	1.9567	6.3492
H	-1.5059	0.8959	6.5208
C	-1.6998	2.7999	7.5150
H	-2.6695	2.4175	7.9002
H	-1.8257	3.8605	7.1996
C	-0.6029	2.7106	8.5783
H	-0.9417	2.0848	9.4333
H	-0.3511	3.7259	8.9561
C	-1.4882	6.4460	-1.3509
H	-0.5376	6.6812	-0.8154
C	-2.2984	7.7259	-1.4924
H	-2.1553	8.3880	-0.6117
H	-3.3810	7.4891	-1.5972
N	0.1672	-5.8447	0.6611
N	2.0919	-4.7140	2.8341
N	0.9456	0.9574	5.7281
N	5.7036	0.4501	1.3748
C	-0.8332	-4.5379	-1.1113
C	-2.0143	-4.2790	-0.3955
H	-2.1244	-4.6478	0.6182
C	0.2927	-5.2671	-0.4950
H	1.2464	-5.2882	-1.0107
C	2.3120	-2.3723	3.3988
C	3.3904	-2.1565	2.5251
H	3.7531	-2.9650	1.9018
C	3.9833	-0.8894	2.4214
C	3.4936	0.1668	3.2085
H	3.9291	1.1557	3.1184
C	2.4165	-0.0338	4.0844
C	1.8331	-1.3081	4.1779
H	0.9860	-1.4686	4.8340
C	1.6208	-3.6754	3.4553
H	0.6863	-3.7485	4.0019
C	5.0571	-0.6741	1.4308
H	5.2802	-1.4643	0.7221
C	1.8693	1.1163	4.8302
H	2.2308	2.1122	4.5941
C	1.2827	-6.4909	1.3505
H	2.2482	-6.3136	0.8187
C	1.3879	-5.9944	2.7819
H	0.3677	-5.9181	3.2292
C	2.1575	-7.0914	3.5014
H	1.8756	-7.1350	4.5770
H	3.2532	-6.9134	3.4201
C	1.7943	-8.3890	2.7766
H	1.1312	-9.0168	3.4117
H	2.7150	-8.9662	2.5402
C	1.0681	-7.9897	1.4901
H	1.4753	-8.5341	0.6095
H	-0.0167	-8.2183	1.5893
C	6.7030	0.7402	0.3475
H	6.7377	-0.0637	-0.4261
C	8.0922	0.9084	0.9433
H	8.6246	-0.0665	0.9921
H	8.0256	1.3381	1.9675
C	8.8164	1.8932	0.0212
H	9.5933	1.3671	-0.5757
H	9.3054	2.6915	0.6217
C	0.3080	2.0773	6.4180
H	0.6268	3.0566	5.9873
C	0.6157	2.0730	7.9069
H	1.5439	2.6461	8.1235
H	0.7382	1.0290	8.2745
N	-0.5233	-2.9327	-5.0742
N	1.2818	-0.4781	-5.7228
N	5.3914	1.9319	-1.3481
N	-0.0149	5.1593	-2.8286
C	-1.7125	-3.2598	-2.9937
C	-0.6911	-4.0291	-2.4110
H	0.2288	-4.2088	-2.9543
C	-1.5429	-2.6436	-4.3247
H	-2.2726	-1.9143	-4.6594
C	2.2093	1.0265	-4.0730
C	1.1541	1.9497	-4.1707
H	0.3179	1.7488	-4.8307
C	1.1495	3.1157	-3.3905
C	2.2190	3.3606	-2.5115
H	2.2141	4.2470	-1.8877
C	3.2782	2.4488	-2.4037
C	3.2695	1.2846	-3.1919
H	4.0717	0.5620	-3.0994
C	2.1861	-0.2462	-4.8204
H	2.9224	-1.0056	-4.5814
C	-0.0156	4.0205	-3.4516
H	-0.8942	3.7038	-4.0029
C	4.3413	2.6916	-1.4083
H	4.2165	3.5029	-0.6995
C	-0.2657	-2.2728	-6.3529
H	-0.9757	-1.4283	-6.5266
C	1.1629	-1.7609	-6.4144
H	1.8547	-2.5239	-5.9815
C	1.4491	-1.6295	-7.9026
H	2.5312	-1.7714	-8.1135
H	1.1347	-0.6268	-8.2698
C	0.6029	-2.7105	-8.5783
H	1.2503	-3.5326	-8.9541
H	0.0410	-2.2783	-9.4354
C	-0.3656	-3.2439	-7.5197
H	-1.4054	-3.2924	-7.9094
H	-0.0474	-4.2625	-7.2043
C	-1.1827	6.0383	-2.7812
H	-2.0789	5.5504	-3.2338
C	-0.9272	7.3553	-3.4991
H	-1.1970	7.2809	-4.5749
H	0.1446	7.6424	-3.4113
C	-1.7944	8.3891	-2.7766
H	-2.6538	8.6904	-3.4160
H	-1.1927	9.2934	-2.5367
C	6.4175	2.0765	-0.3159
H	6.1156	2.8237	0.4577
C	7.7564	2.4940	-0.9044
H	7.8422	3.6019	-0.9525
H	7.8767	2.0753	-1.9290
