150

N	-5.5541	-1.9132	-0.3366
N	-5.7305	0.9020	0.9860
N	-1.6060	5.6297	-0.5924
N	-1.0890	2.6638	5.1328
C	-3.4980	-3.1192	-0.7456
C	-3.3600	-2.6435	-2.0608
H	-4.0822	-1.9420	-2.4615
C	-4.5885	-2.6460	0.1299
H	-4.5570	-2.8938	1.1852
C	-3.8875	2.4576	1.1708
C	-3.5182	2.0276	2.4573
H	-4.0550	1.2133	2.9305
C	-2.4340	2.6157	3.1235
C	-1.7202	3.6515	2.4970
H	-0.8655	4.0976	2.9926
C	-2.0764	4.0907	1.2132
C	-3.1656	3.4921	0.5582
H	-3.4358	3.8085	-0.4433
C	-4.9691	1.7900	0.4203
H	-5.1021	2.0285	-0.6291
C	-2.0171	2.0831	4.4349
H	-2.4781	1.1710	4.7984
C	-1.2530	5.1189	0.5479
H	-0.3205	5.4237	1.0123
C	-6.5972	-1.3419	0.5144
H	-6.3829	-1.5150	1.5964
C	-6.7461	0.1465	0.2537
H	-6.6904	0.3442	-0.8439
C	-8.1505	0.4727	0.7391
H	-8.5777	1.3299	0.1747
H	-8.1374	0.7213	1.8242
C	-8.9667	-0.8035	0.5164
H	-9.6780	-0.6665	-0.3272
H	-9.5423	-1.0553	1.4339
C	-7.9681	-1.9166	0.1892
H	-8.1697	-2.8299	0.7897
H	-8.0348	-2.1699	-0.8925
C	-0.5785	2.1127	6.3872
H	-0.9950	1.0971	6.5877
C	-0.8965	3.0143	7.5706
H	-1.8809	2.7545	8.0162
H	-0.9111	4.0812	7.2516
C	0.2427	2.7958	8.5687
H	-0.1181	2.2192	9.4489
H	0.6381	3.7742	8.9199
C	-0.7714	6.5743	-1.3318
H	0.2309	6.6938	-0.8556
C	-1.4270	7.9429	-1.4396
H	-1.1523	8.5859	-0.5761
H	-2.5346	7.8396	-1.4781
N	-0.5054	-5.8190	0.7141
N	1.6684	-4.9234	2.7580
N	1.3943	0.8562	5.6519
N	5.7877	-0.2439	1.0330
C	-1.4433	-4.4065	-1.0108
C	-2.5394	-4.0028	-0.2299
H	-2.6330	-4.3516	0.7925
C	-0.3797	-5.2653	-0.4536
H	0.5319	-5.4045	-1.0241
C	2.2046	-2.6240	3.2832
C	3.2474	-2.5445	2.3455
H	3.4714	-3.3936	1.7108
C	3.9827	-1.3597	2.1933
C	3.6727	-0.2487	2.9962
H	4.2191	0.6794	2.8699
C	2.6333	-0.3132	3.9358
C	1.9059	-1.5064	4.0773
H	1.0861	-1.5600	4.7837
C	1.3648	-3.8328	3.3943
H	0.4625	-3.7893	3.9956
C	5.0138	-1.2806	1.1392
H	5.0966	-2.0949	0.4273
C	2.2753	0.8978	4.6998
H	2.7405	1.8413	4.4320
C	0.5622	-6.5938	1.3440
H	1.5088	-6.5376	0.7546
C	0.8120	-6.1086	2.7612
H	-0.1629	-5.9067	3.2667
C	1.4840	-7.2886	3.4463
H	1.2634	-7.2934	4.5370
H	2.5865	-7.2458	3.2990
C	0.9234	-8.5348	2.7583
H	0.2278	-9.0747	3.4380
H	1.7513	-9.2210	2.4746
C	0.1758	-8.0547	1.5123
H	0.4607	-8.6480	0.6154
H	-0.9210	-8.1489	1.6774
C	6.7520	-0.0817	-0.0542
H	6.6425	-0.8868	-0.8196
C	8.1843	-0.0821	0.4573
H	8.5963	-1.1144	0.4854
H	8.2315	0.3564	1.4788
C	8.9667	0.8036	-0.5165
H	9.6369	0.1844	-1.1520
H	9.5840	1.5385	0.0456
C	0.9397	2.0481	6.3658
H	1.3490	2.9795	5.9064
C	1.3327	2.0118	7.8340
H	2.3348	2.4682	7.9896
H	1.3491	0.9620	8.2053
N	-1.1771	-2.8658	-5.0024
N	0.8713	-0.6522	-5.7825
N	5.4964	1.2547	-1.6829
N	0.4440	5.1120	-2.8792
C	-2.2712	-3.0376	-2.8523
C	-1.3181	-3.9237	-2.3221
H	-0.4608	-4.2163	-2.9164
C	-2.1075	-2.4517	-4.1976
H	-2.7617	-1.6401	-4.4969
C	2.0714	0.7341	-4.2065
C	1.1323	1.7788	-4.2523
H	0.2400	1.6790	-4.8599
C	1.3158	2.9396	-3.4860
C	2.4576	3.0554	-2.6739
H	2.5976	3.9382	-2.0607
C	3.4027	2.0216	-2.6184
C	3.2056	0.8643	-3.3919
H	3.9181	0.0495	-3.3388
C	1.8491	-0.5290	-4.9373
H	2.5006	-1.3716	-4.7335
C	0.2678	3.9795	-3.4886
H	-0.6740	3.7703	-3.9839
C	4.5447	2.1366	-1.6898
H	4.5619	2.9597	-0.9838
C	-0.9177	-2.2470	-6.3011
H	-1.5288	-1.3229	-6.4421
C	0.5563	-1.9135	-6.4519
H	1.1748	-2.7536	-6.0520
C	0.7673	-1.8235	-7.9556
H	1.8096	-2.0971	-8.2281
H	0.5558	-0.7913	-8.3148
C	-0.2427	-2.7957	-8.5687
H	0.2764	-3.6920	-8.9728
H	-0.7979	-2.3014	-9.3961
C	-1.2042	-3.2030	-7.4494
H	-2.2634	-3.1258	-7.7769
H	-0.9940	-4.2516	-7.1421
C	-0.6034	6.1270	-2.7730
H	-1.5776	5.7504	-3.1670
C	-0.2329	7.4004	-3.5190
H	-0.5733	7.3555	-4.5763
H	0.8692	7.5549	-3.4974
C	-0.9234	8.5349	-2.7583
H	-1.7763	8.9365	-3.3494
H	-0.2030	9.3600	-2.5640
C	6.5921	1.2769	-0.7143
H	6.4298	2.0583	0.0674
C	7.9343	1.5258	-1.3848
H	8.1512	2.6148	-1.4500
H	7.9416	1.0917	-2.4101
