147

C	0.8928	-5.9757	0.0196
H	1.6823	-6.7727	-0.1833
C	0.2114	-6.2799	1.2705
O	1.1345	-6.2922	2.3541
C	-0.9244	-5.2491	1.5404
H	-0.4712	-4.2071	1.6285
O	-1.5547	-5.5880	2.7659
C	-1.8233	-5.2855	0.3938
H	-2.3743	-6.2830	0.3634
C	-1.1292	-5.0526	-0.8955
H	-0.7248	-3.9867	-0.9019
C	-1.9858	-5.2490	-2.1248
H	-2.9279	-4.6167	-2.0236
H	-1.4086	-4.9100	-3.0484
O	-2.3466	-6.5633	-2.3094
O	-0.0291	-5.9558	-1.0409
O	-2.7693	-4.2053	0.5631
C	-4.1459	-4.4941	0.6062
H	-4.2943	-5.6238	0.5646
C	-4.7070	-3.9730	1.8814
H	-5.8267	-4.1805	1.9164
O	-4.0738	-4.5761	3.0168
C	-4.4672	-2.4672	1.9367
H	-3.3502	-2.2487	1.8666
O	-4.9961	-1.9222	3.1537
C	-5.1822	-1.8714	0.7471
H	-6.3056	-2.0256	0.8641
C	-4.7296	-2.4764	-0.5328
H	-3.6475	-2.1711	-0.7207
C	-5.5461	-2.0742	-1.6939
H	-5.4172	-0.9566	-1.8769
H	-5.2031	-2.6502	-2.6171
O	-6.9398	-2.3620	-1.4520
O	-4.8035	-3.9033	-0.4812
O	-4.8897	-0.4807	0.7717
C	-5.9333	0.4599	0.5713
H	-6.9235	-0.1048	0.5495
C	-5.9403	1.3736	1.7600
H	-6.8176	2.0901	1.6391
O	-6.1417	0.6480	2.9565
C	-4.7015	2.1828	1.7802
H	-3.8018	1.5024	1.9452
O	-4.7633	3.1543	2.8195
C	-4.5583	2.9162	0.4248
H	-5.4217	3.6527	0.3156
C	-4.6253	1.9405	-0.6780
H	-3.7206	1.2512	-0.6119
C	-4.6395	2.5832	-2.0272
H	-3.6136	3.0280	-2.2482
H	-4.8946	1.8019	-2.8170
O	-5.6285	3.6264	-2.0456
O	-5.8013	1.1527	-0.6214
O	-3.3724	3.6208	0.4150
C	-3.4297	4.9668	0.1335
H	-4.5225	5.2898	0.1298
C	-2.6951	5.7285	1.2667
H	-2.7635	6.8513	1.0827
O	-3.2547	5.4178	2.5120
C	-1.2361	5.2884	1.2331
H	-1.1718	4.1702	1.4450
O	-0.4781	6.0039	2.2112
C	-0.6776	5.5707	-0.1287
H	-0.6328	6.6968	-0.3055
C	-1.4399	4.9178	-1.2151
H	-1.3324	3.7863	-1.1356
O	-2.8650	5.2927	-1.1107
C	-1.0620	5.3639	-2.5794
H	0.0033	5.0229	-2.7976
H	-1.7660	4.8917	-3.3418
O	-1.1356	6.7835	-2.7328
O	0.6552	5.0190	-0.1339
C	1.7033	5.8057	-0.5359
H	1.3381	6.8786	-0.6576
C	2.7488	5.7623	0.5522
H	3.6121	6.4256	0.2157
O	2.2752	6.2820	1.7773
C	3.2744	4.3939	0.6719
H	2.4361	3.6938	0.9979
O	4.3317	4.3816	1.6731
C	3.8253	3.9328	-0.6451
H	4.7329	4.5582	-0.9366
C	2.7442	4.0279	-1.7227
H	1.8990	3.3145	-1.4478
O	2.2194	5.3654	-1.7393
C	3.1961	3.7055	-3.0967
H	3.5145	2.6121	-3.1436
H	2.3414	3.8817	-3.8297
O	4.2336	4.4855	-3.4378
O	4.1798	2.5622	-0.5425
C	5.5424	2.2343	-0.8362
H	6.1178	3.1946	-1.0503
C	6.1534	1.5509	0.3580
H	7.2327	1.2718	0.1209
O	6.1312	2.4132	1.4659
C	5.3552	0.2793	0.6390
H	4.2691	0.5293	0.8786
O	5.9736	-0.4019	1.7377
C	5.4433	-0.5783	-0.5909
H	6.5243	-0.9014	-0.7566
C	4.9386	0.1318	-1.8011
H	3.8198	0.3138	-1.6741
O	5.5954	1.4087	-1.9651
C	5.1552	-0.6202	-3.0641
H	4.5793	-1.6040	-3.0166
H	4.7707	-0.0050	-3.9436
O	6.5596	-0.9029	-3.2809
O	4.6210	-1.7322	-0.3727
C	5.2079	-3.0022	-0.4785
H	6.3239	-2.8784	-0.6739
C	5.0186	-3.7198	0.8390
H	5.4802	-4.7571	0.7397
O	5.6504	-3.0740	1.8836
C	3.5079	-3.8972	1.0543
H	3.0185	-2.8684	1.1140
O	3.3095	-4.5767	2.2884
C	2.9145	-4.6439	-0.0555
H	3.3370	-5.7026	-0.0635
C	3.2291	-3.9717	-1.3816
H	2.6638	-2.9835	-1.4410
O	4.6387	-3.7173	-1.5373
C	2.8691	-4.8065	-2.5517
O	3.5683	-6.0464	-2.5347
O	1.5282	-4.7026	0.1374
H	-0.2553	-7.3155	1.1838
H	1.0043	-7.2259	2.9397
H	-0.8206	-5.5046	3.5945
H	-1.7067	-7.2144	-1.6782
H	-3.2053	-3.9587	3.3280
H	-4.5923	-0.8997	3.3085
H	-7.0245	-3.2101	-0.7404
H	-5.2986	0.8395	3.6524
H	-4.4003	2.7062	3.7678
H	-5.1264	4.6133	-1.9638
H	-2.4999	5.5828	3.3077
H	-0.2026	5.3184	3.0395
H	-0.2669	7.2561	-2.2306
H	2.6750	7.3070	1.9231
H	4.2718	3.4435	2.2636
H	5.1204	4.2093	-2.8294
H	6.3446	1.8357	2.3897
H	6.8641	0.1700	2.0731
H	6.8063	-1.8998	-2.8595
H	5.8328	-3.7942	2.7083
H	4.1511	-4.3488	2.9748
H	1.7474	-5.0097	-2.5359
H	3.1359	-4.2520	-3.5113
H	4.6221	-5.8735	-2.2320
