168

C	5.8113	-3.7389	-0.1860
H	6.9250	-3.6649	-0.4186
C	5.6346	-4.6250	1.0039
H	6.1005	-5.6341	0.7503
C	4.1208	-4.8586	1.2444
H	3.6278	-3.8825	1.5657
C	3.4799	-5.3572	-0.0068
H	3.9118	-6.3760	-0.2797
C	3.7217	-4.3882	-1.1259
H	3.2701	-3.3865	-0.8225
C	3.0966	-4.7980	-2.4715
H	1.9858	-5.0049	-2.3249
H	3.2259	-3.9507	-3.2244
O	6.2727	-4.1444	2.1851
O	3.9387	-5.8632	2.2786
O	2.0884	-5.4810	0.2563
O	5.1624	-4.1940	-1.3040
O	3.7219	-5.9526	-2.9701
C	1.4860	-6.7063	-0.1124
H	2.3047	-7.4646	-0.3423
C	0.7028	-7.1852	1.0705
H	0.2713	-8.2088	0.8122
C	-0.4644	-6.2459	1.3578
H	-0.0838	-5.2016	1.6081
C	-1.3164	-6.2149	0.0799
H	-1.7044	-7.2600	-0.1602
C	-0.4512	-5.7181	-1.0297
H	-0.0525	-4.6903	-0.7407
C	-1.1923	-5.5898	-2.3507
H	-2.0729	-4.8779	-2.2217
H	-0.4852	-5.1757	-3.1441
O	1.4920	-7.3287	2.2517
O	-1.3141	-6.7438	2.4181
O	5.3216	-2.4091	0.1527
O	0.6562	-6.5885	-1.2258
O	-1.6627	-6.8333	-2.7661
H	6.0656	-4.8379	3.0263
H	4.8757	-5.9639	2.8658
H	4.8069	-5.7567	-3.1054
H	1.0482	-8.1119	2.9004
H	-0.6843	-7.0828	3.2675
H	-1.1633	-7.6331	-2.1795
C	-5.8248	3.7512	0.0282
H	-6.9471	3.6775	-0.1611
C	-5.6029	4.6414	1.2079
H	-6.0782	5.6498	0.9697
C	-4.0805	4.8747	1.3893
H	-3.5754	3.8995	1.6939
C	-3.4883	5.3699	0.1129
H	-3.9306	6.3879	-0.1460
C	-3.7730	4.3978	-0.9935
H	-3.3100	3.3969	-0.7049
C	-3.2002	4.8038	-2.3633
H	-2.0847	5.0111	-2.2601
H	-3.3590	3.9554	-3.1082
O	-6.1945	4.1633	2.4142
O	-3.8592	5.8830	2.4128
O	-2.0869	5.4948	0.3218
O	-5.2200	4.2040	-1.1153
O	-3.8445	5.9571	-2.8406
C	-1.5001	6.7185	-0.0733
H	-2.3276	7.4771	-0.2734
C	-0.6709	7.2012	1.0773
H	-0.2507	8.2234	0.7997
C	0.5056	6.2621	1.3219
H	0.1351	5.2185	1.5895
C	1.3072	6.2283	0.0122
H	1.6860	7.2720	-0.2455
C	0.3998	5.7285	-1.0618
H	0.0131	4.7006	-0.7549
C	1.0895	5.5966	-2.4101
H	1.9750	4.8843	-2.3132
H	0.3523	5.1804	-3.1744
O	-1.4150	7.3474	2.2877
O	1.3950	6.7637	2.3473
O	-5.3224	2.4222	0.3514
O	-0.7138	6.5976	-1.2175
O	1.5433	6.8389	-2.8466
H	-5.4061	4.0210	3.1824
H	-3.6724	5.3856	3.3881
H	-3.0992	6.7673	-2.9781
H	-0.7378	7.2128	3.1569
H	1.3890	6.0685	3.2135
H	2.5534	7.0309	-2.4284
C	-3.7512	-5.8136	0.0013
H	-3.6813	-6.9310	-0.2095
C	-4.6164	-5.6114	1.2030
H	-5.6297	-6.0824	0.9771
C	-4.8453	-4.0925	1.4163
H	-3.8638	-3.5930	1.7098
C	-5.3665	-3.4777	0.1613
H	-6.3908	-3.9156	-0.0844
C	-4.4186	-3.7429	-0.9699
H	-3.4116	-3.2852	-0.6938
C	-4.8520	-3.1466	-2.3206
H	-5.0563	-2.0317	-2.1931
H	-4.0183	-3.2914	-3.0855
O	-4.1131	-6.2255	2.3883
O	-5.8322	-3.8896	2.4643
O	-5.4861	-2.0811	0.3978
O	-4.2264	-5.1879	-1.1216
O	-6.0143	-3.7817	-2.7854
C	-6.7180	-1.4864	0.0386
H	-7.4803	-2.3109	-0.1606
C	-7.1760	-0.6788	1.2135
H	-8.2041	-0.2529	0.9647
C	-6.2321	0.4940	1.4598
H	-5.1828	0.1179	1.6991
C	-6.2251	1.3189	0.1642
H	-7.2745	1.7018	-0.0651
C	-5.7478	0.4309	-0.9359
H	-4.7149	0.0384	-0.6573
C	-5.6436	1.1447	-2.2741
H	-4.9285	2.0274	-2.1761
H	-5.2436	0.4214	-3.0601
O	-7.2988	-1.4441	2.4131
O	-6.7116	1.3640	2.5110
O	-2.4147	-5.3166	0.3060
O	-6.6200	-0.6806	-1.0937
O	-6.8940	1.6055	-2.6767
H	-4.8605	-6.9497	2.7758
H	-5.4408	-4.2902	3.4235
H	-6.1941	-4.7039	-2.1945
H	-6.3431	-1.4033	2.9768
H	-5.8498	1.8748	2.9908
H	-7.6810	0.9208	-2.2966
C	3.7376	5.8258	-0.1590
H	3.6592	6.9435	-0.3701
C	4.6480	5.6278	1.0088
H	5.6524	6.0973	0.7428
C	4.8852	4.1095	1.2174
H	3.9158	3.6109	1.5499
C	5.3576	3.4912	-0.0551
H	6.3720	3.9275	-0.3413
C	4.3671	3.7524	-1.1495
H	3.3717	3.2955	-0.8337
C	4.7483	3.1525	-2.5144
H	4.9574	2.0379	-2.3918
H	3.8857	3.2952	-3.2470
O	4.1914	6.2442	2.2111
O	5.9116	3.9094	2.2271
O	5.4868	2.0943	0.1804
O	4.1693	5.1970	-1.2978
O	5.8917	3.7862	-3.0253
C	6.7040	1.4985	-0.2244
H	7.4579	2.3226	-0.4551
C	7.2069	0.6943	0.9343
H	8.2242	0.2684	0.6471
C	6.2733	-0.4779	1.2200
H	5.2340	-0.1010	1.4985
C	6.2159	-1.3055	-0.0721
H	7.2557	-1.6890	-0.3406
C	5.6971	-0.4214	-1.1554
H	4.6756	-0.0279	-0.8383
C	5.5408	-1.1379	-2.4867
H	4.8306	-2.0211	-2.3588
H	5.1112	-0.4176	-3.2586
O	7.3754	1.4636	2.1262
O	6.7931	-1.3450	2.2543
O	2.4139	5.3297	0.1982
O	6.5624	0.6898	-1.3498
O	6.7753	-1.6006	-2.9360
H	5.0599	6.6479	2.7728
H	5.6126	3.0777	2.8991
H	6.7848	3.4568	-2.4541
H	7.1186	0.8395	3.0082
H	6.0163	-2.0837	2.5423
H	7.0454	-2.5267	-2.3868
