176

O	-14.3349	0.7171	-0.3141
C	-0.6096	-7.6209	-5.2926
C	-8.5820	0.0410	-0.0436
C	-5.2459	-6.5498	-4.1629
C	-6.9341	-3.4034	-2.1821
C	-8.0504	-0.2257	1.3870
C	-8.1016	1.4009	-0.6081
C	-10.7706	0.1692	-1.3548
H	-10.1984	0.0443	-2.2650
C	-8.0382	-1.1637	-0.8516
C	-6.1059	-2.3642	-1.7538
H	-5.0382	-2.4027	-1.9352
C	-1.8098	-7.6370	-5.1706
C	-8.5756	-1.3051	2.1357
H	-9.3911	-1.8977	1.7407
C	-0.8795	8.8411	-2.9442
C	-3.2396	-7.6274	-5.0073
C	-6.3675	-4.5270	-2.8794
C	-10.1240	0.1548	-0.1005
C	-8.8497	-2.2572	-1.2355
H	-9.9017	-2.2916	-0.9942
C	-5.5535	7.4281	-2.7792
C	-4.1580	7.5294	-2.7055
H	-3.5732	6.6927	-2.3388
C	-12.1535	0.3364	-1.4558
H	-12.5940	0.3160	-2.4433
C	-3.5154	8.7096	-3.1028
C	-6.6466	-1.2685	-1.0801
H	-5.9752	-0.4888	-0.7412
C	-7.2503	3.9197	-1.5695
C	-8.3042	-3.3547	-1.9105
H	-8.9496	-4.1729	-2.2069
C	-3.8534	-6.5683	-4.3252
H	-3.2511	-5.7611	-3.9229
C	-5.8683	-5.4553	-3.4654
C	-8.0551	-1.6358	3.3902
H	-8.4849	-2.4606	3.9460
C	-4.2722	9.7901	-3.5756
H	-3.7860	10.7064	-3.8860
C	-5.6655	9.6885	-3.6494
H	-6.2486	10.5240	-4.0153
C	-4.0197	-8.6686	-5.5263
H	-3.5552	-9.4918	-6.0561
C	-2.0811	8.7991	-3.0221
C	-6.3078	8.5106	-3.2517
H	-7.3867	8.4431	-3.3123
C	-8.2950	2.5771	0.1531
H	-8.7580	2.5260	1.1304
C	-6.1988	6.2109	-2.3661
C	-6.9729	-0.9213	3.9098
C	-12.9352	0.5384	-0.2999
C	-6.7002	5.1740	-2.0086
C	-7.5824	1.5442	-1.9160
H	-7.5168	0.7049	-2.5930
C	-6.4020	-1.2804	5.1809
C	-5.2303	-1.8883	7.4721
C	-7.8518	3.8168	-0.3125
H	-7.9632	4.6930	0.3159
C	-6.0227	-7.5930	-4.6832
H	-7.1002	-7.5879	-4.5643
C	-5.4094	-8.6496	-5.3640
H	-6.0106	-9.4553	-5.7650
C	-15.0111	0.6604	-1.5696
H	-14.8698	-0.3349	-2.0439
H	-16.0967	0.8089	-1.3982
H	-14.6550	1.4712	-2.2400
C	-3.9280	-2.5086	9.8745
H	-3.4330	-2.7534	10.8073
C	-7.1411	2.7863	-2.3802
H	-6.7056	2.8614	-3.3688
C	-3.2034	-1.9639	8.8067
C	-6.9213	0.4462	1.9110
H	-6.4011	1.2055	1.3458
C	-6.4042	0.1142	3.1654
H	-5.5416	0.6502	3.5425
C	-3.8563	-1.6540	7.6070
H	-3.2953	-1.2334	6.7782
C	-10.9096	0.4198	1.0426
H	-10.4647	0.5313	2.0212
C	-12.2928	0.5886	0.9408
H	-12.8712	0.7771	1.8361
C	-5.8871	-1.5652	6.2329
C	-5.3015	-2.7423	9.7407
H	-5.8600	-3.1641	10.5662
C	-0.6034	-1.5146	8.9892
C	-1.7890	-1.7248	8.9278
C	-5.9530	-2.4322	8.5420
H	-7.0167	-2.6176	8.4478
O	14.3270	-0.5078	-0.7740
C	0.5287	8.8538	-2.8402
C	8.5792	0.0116	-0.2155
C	5.1798	7.5081	-2.1606
C	6.8947	3.9261	-1.2118
C	8.0746	-0.1624	1.2393
C	8.0868	-1.1232	-1.1492
C	10.7422	0.2853	-1.5478
H	10.1507	0.6661	-2.3708
C	8.0213	1.3979	-0.6209
C	6.0726	2.8040	-1.0903
H	5.0019	2.8898	-1.2305
C	1.7298	8.8362	-2.7438
C	8.6106	0.6512	2.2648
H	9.4166	1.3425	2.0488
C	0.7954	-7.5728	-5.4158
C	3.1628	8.7813	-2.6186
C	6.3168	5.2019	-1.5412
C	10.1201	-0.0724	-0.3312
C	8.8273	2.5603	-0.6817
H	9.8844	2.5266	-0.4640
C	5.4762	-6.2545	-4.9409
C	4.0826	-6.3758	-4.8730
H	3.5073	-5.6808	-4.2711
C	12.1231	0.1661	-1.7177
H	12.5435	0.4786	-2.6632
C	3.4288	-7.3928	-5.5806
C	6.6253	1.5601	-0.7781
H	5.9597	0.7133	-0.6691
C	7.2102	-3.2492	-2.7933
C	8.2702	3.8049	-0.9948
H	8.9115	4.6758	-1.0525
C	3.7855	7.5715	-2.2829
H	3.1868	6.6820	-2.1181
C	5.8107	6.2593	-1.8216
C	8.1172	0.5882	3.5712
H	8.5564	1.2141	4.3385
C	4.1720	-8.2904	-6.3584
H	3.6773	-9.0806	-6.9108
C	5.5643	-8.1693	-6.4263
H	6.1379	-8.8634	-7.0271
C	3.9377	9.9290	-2.8319
H	3.4673	10.8689	-3.0926
C	1.9960	-7.5058	-5.5020
C	6.2174	-7.1532	-5.7188
H	7.2964	-7.0702	-5.7773
C	8.2988	-2.4704	-0.7763
H	8.7858	-2.7080	0.1616
C	6.1340	-5.2091	-4.2038
C	7.0495	-0.2607	3.8746
C	12.9277	-0.3562	-0.6841
C	6.6466	-4.3206	-3.5704
C	7.5358	-0.8756	-2.4278
H	7.4536	0.1262	-2.8244
C	6.5051	-0.3046	5.2065
C	5.3828	-0.4276	7.5975
C	7.8438	-3.5201	-1.5775
H	7.9705	-4.5415	-1.2408
C	5.9523	8.6577	-2.3747
H	7.0306	8.6200	-2.2841
C	5.3307	9.8654	-2.7097
H	5.9277	10.7524	-2.8748
C	14.9771	-0.0909	-1.9751
H	14.8212	0.9954	-2.1454
H	16.0676	-0.2694	-1.8710
H	14.6133	-0.6838	-2.8414
C	4.1291	-0.5787	10.0998
H	3.6533	-0.6335	11.0706
C	7.0820	-1.9274	-3.2283
H	6.6218	-1.7081	-4.1844
C	3.3813	-0.7706	8.9302
C	6.9593	-0.9715	1.5612
H	6.4291	-1.5330	0.8053
C	6.4684	-1.0325	2.8668
H	5.6151	-1.6646	3.0840
C	4.0102	-0.6947	7.6801
H	3.4319	-0.8421	6.7743
C	10.9293	-0.6529	0.6696
H	10.5038	-1.0487	1.5806
C	12.3102	-0.7721	0.4987
H	12.9062	-1.2077	1.2903
C	6.0137	-0.3546	6.3055
C	5.5005	-0.3130	10.0160
H	6.0774	-0.1656	10.9198
C	0.7841	-1.2608	9.0157
C	1.9689	-1.0390	8.9989
C	6.1286	-0.2369	8.7679
H	7.1904	-0.0307	8.7146
