176

O	14.2728	1.1354	-1.0489
C	0.6450	-8.0381	-4.6297
C	8.5650	0.3059	-0.4503
C	5.2858	-6.7261	-3.8171
C	6.9473	-3.3647	-2.2001
C	8.1067	0.1509	1.0215
C	8.0123	1.5947	-1.1082
C	10.6878	0.3856	-1.8691
H	10.0807	0.1626	-2.7371
C	8.0289	-0.9822	-1.1237
C	6.1024	-2.3181	-1.8258
H	5.0298	-2.4060	-1.9527
C	1.8492	-8.0057	-4.5633
C	8.7021	-0.8408	1.8360
H	9.5199	-1.4402	1.4564
C	0.4357	8.5679	-3.7430
C	3.2836	-7.9368	-4.4688
C	6.3906	-4.5631	-2.7692
C	10.0979	0.4626	-0.5893
C	8.8610	-2.0796	-1.4483
H	9.9231	-2.0593	-1.2546
C	5.1595	7.3222	-3.6752
C	3.7659	7.3859	-3.5451
H	3.2278	6.5672	-3.0796
C	12.0581	0.5866	-2.0493
H	12.4551	0.4923	-3.0508
C	3.0650	8.5054	-4.0133
C	6.6333	-1.1505	-1.2765
H	5.9503	-0.3651	-0.9757
C	7.0309	3.9901	-2.2448
C	8.3255	-3.2493	-1.9984
H	8.9857	-4.0699	-2.2523
C	3.8890	-6.8025	-3.9114
H	3.2768	-5.9821	-3.5533
C	5.8992	-5.5549	-3.2477
C	8.2495	-1.0748	3.1376
H	8.7322	-1.8330	3.7426
C	3.7616	9.5628	-4.6136
H	3.2301	10.4323	-4.9797
C	5.1530	9.4988	-4.7436
H	5.6895	10.3163	-5.2081
C	4.0764	-8.9950	-4.9311
H	3.6184	-9.8762	-5.3645
C	1.6334	8.5567	-3.8733
C	5.8535	8.3816	-4.2753
H	6.9304	8.3428	-4.3804
C	8.1973	2.8393	-0.4626
H	8.7044	2.8897	0.4926
C	5.8649	6.1675	-3.1881
C	7.1666	-0.3513	3.6432
C	12.8823	0.9149	-0.9534
C	6.4180	5.1825	-2.7654
C	7.4313	1.6048	-2.3978
H	7.3656	0.7071	-2.9951
C	6.6652	-0.6136	4.9662
C	5.6179	-1.0521	7.3543
C	7.6906	4.0182	-1.0132
H	7.7984	4.9499	-0.4698
C	6.0754	-7.7865	-4.2802
H	7.1561	-7.7370	-4.2129
C	5.4704	-8.9181	-4.8366
H	6.0814	-9.7370	-5.1935
C	14.8946	0.9885	-2.3251
H	14.7679	-0.0489	-2.7035
H	15.9808	1.1857	-2.2185
H	14.4809	1.7251	-3.0463
C	4.4455	-1.4970	9.8602
H	4.0011	-1.6733	10.8331
C	6.9263	2.7863	-2.9473
H	6.4453	2.7596	-3.9172
C	3.6557	-1.0724	8.7842
C	6.9786	0.8310	1.5373
H	6.4076	1.5204	0.9330
C	6.5294	0.5957	2.8388
H	5.6658	1.1358	3.2078
C	4.2437	-0.8499	7.5327
H	3.6323	-0.5223	6.6977
C	10.9233	0.8526	0.4881
H	10.5183	1.0366	1.4730
C	12.2938	1.0550	0.3070
H	12.9040	1.3402	1.1542
C	6.2077	-0.8200	6.0622
C	5.8191	-1.6985	9.6829
H	6.4280	-2.0276	10.5150
C	1.0520	-0.6903	9.0488
C	2.2404	-0.8679	8.9503
C	6.4058	-1.4759	8.4325
H	7.4703	-1.6355	8.3049
O	-14.3203	-1.0235	-0.0524
C	-0.9662	8.5454	-3.5745
C	-8.5753	-0.2765	0.1878
C	-5.5323	7.1203	-2.5621
C	-7.0759	3.5848	-1.2246
C	-8.0013	-0.3047	1.6269
C	-8.0848	-1.4737	-0.6653
C	-10.8033	-0.1902	-1.0602
H	-10.2625	0.1343	-1.9401
C	-8.0853	1.0850	-0.3629
C	-6.2102	2.5042	-1.0443
H	-5.1503	2.6108	-1.2417
C	-2.1605	8.4989	-3.4205
C	-8.5201	0.5796	2.6015
H	-9.3588	1.2233	2.3640
C	-0.7649	-8.0452	-4.6904
C	-3.5837	8.4104	-3.2239
C	-6.5586	4.8438	-1.6910
C	-10.1160	-0.4187	0.1524
C	-8.9338	2.2116	-0.4871
H	-9.9784	2.1643	-0.2177
C	-5.4639	-6.8374	-4.1130
C	-4.0652	-6.9084	-4.1003
H	-3.4890	-6.1450	-3.5891
C	-12.1854	-0.3673	-1.1539
H	-12.6578	-0.1534	-2.1023
C	-3.4077	-7.9632	-4.7463
C	-6.7042	1.2763	-0.5991
H	-6.0049	0.4638	-0.4480
C	-7.2068	-3.7089	-2.1569
C	-8.4354	3.4404	-0.9334
H	-9.1090	4.2821	-1.0367
C	-4.1478	7.2163	-2.7549
H	-3.5113	6.3642	-2.5414
C	-6.1031	5.8875	-2.0861
C	-7.9677	0.6483	3.8837
H	-8.3946	1.3258	4.6132
C	-4.1523	-8.9492	-5.4071
H	-3.6548	-9.7694	-5.9110
C	-5.5496	-8.8784	-5.4198
H	-6.1241	-9.6407	-5.9300
C	-4.4074	9.5098	-3.4999
H	-3.9825	10.4372	-3.8634
C	-1.9697	-8.0239	-4.7257
C	-6.2064	-7.8244	-4.7738
H	-7.2891	-7.7808	-4.7885
C	-8.2324	-2.7886	-0.1667
H	-8.6689	-2.9570	0.8103
C	-6.1252	-5.7517	-3.4400
C	-6.8583	-0.1362	4.2096
C	-12.9246	-0.8206	-0.0420
C	-6.6405	-4.8269	-2.8632
C	-7.5997	-1.3237	-1.9851
H	-7.5706	-0.3589	-2.4712
C	-6.2546	-0.0446	5.5132
C	-5.0243	0.0806	7.8504
C	-7.7763	-3.8905	-0.8937
H	-7.8518	-4.8814	-0.4635
C	-6.3537	8.2215	-2.8391
H	-7.4248	8.1584	-2.6951
C	-5.7905	9.4137	-3.3072
H	-6.4252	10.2634	-3.5209
C	-15.0369	-0.7355	-1.2535
H	-14.9272	0.3357	-1.5251
H	-16.1148	-0.9381	-1.0831
H	-14.6909	-1.3913	-2.0808
C	-3.6571	0.1917	10.2946
H	-3.1374	0.2383	11.2430
C	-7.1447	-2.4276	-2.7112
H	-6.7352	-2.2798	-3.7034
C	-2.9552	-0.0797	9.1124
C	-6.8451	-1.0467	1.9655
H	-6.3291	-1.6562	1.2373
C	-6.2952	-0.9760	3.2468
H	-5.4114	-1.5593	3.4780
C	-3.6409	-0.1350	7.8914
H	-3.0981	-0.3441	6.9757
C	-10.8592	-0.9332	1.2370
H	-10.3803	-1.2328	2.1581
C	-12.2413	-1.1102	1.1422
H	-12.7861	-1.4923	1.9960
C	-5.7138	0.0186	6.5880
C	-5.0394	0.4058	10.2525
H	-5.5808	0.6148	11.1661
C	-0.3410	-0.4788	9.1182
C	-1.5326	-0.2966	9.1378
C	-5.7241	0.3509	9.0334
H	-6.7939	0.5183	9.0123
