468

C	-4.7238	9.8454	-0.1680
H	-5.1988	10.8524	-0.1456
C	-4.3062	9.4471	1.2532
H	-3.9612	8.3873	1.2513
H	-5.1919	9.5100	1.9218
C	-3.1920	10.3409	1.8115
H	-3.5788	11.3772	1.9382
C	-1.9850	10.3527	0.8633
H	-1.5215	9.3399	0.8483
H	-1.2246	11.0650	1.2537
C	-2.3617	10.7552	-0.5707
H	-2.6678	11.8254	-0.5794
C	-3.5071	9.8731	-1.1051
H	-3.1307	8.8339	-1.2428
H	-3.8267	10.2496	-2.1006
C	-6.9001	9.0432	-0.9691
H	-7.3124	10.0436	-0.9030
C	-7.7644	7.9218	-1.4229
C	-7.3534	6.5724	-1.3305
C	-8.1853	5.5480	-1.8414
C	-9.4574	5.8793	-2.3365
H	-10.0911	5.0878	-2.7119
C	-9.9150	7.2115	-2.3741
C	-9.0374	8.2249	-1.9275
H	-9.3273	9.2645	-1.9619
C	-11.3329	7.5123	-2.9096
C	-11.4422	7.0387	-4.3754
H	-11.3144	5.9391	-4.4618
H	-10.6666	7.5313	-4.9994
H	-12.4399	7.2882	-4.7966
C	-12.3756	6.7641	-2.0500
H	-12.2805	7.0619	-0.9830
H	-12.2495	5.6632	-2.1164
H	-13.4082	6.9999	-2.3878
C	-11.6930	9.0167	-2.8746
H	-11.0034	9.6054	-3.5180
H	-11.6538	9.4099	-1.8355
H	-12.7239	9.1846	-3.2561
C	-7.7030	4.1468	-1.9253
H	-6.6440	3.9445	-1.8282
C	-8.0559	1.7708	-2.2286
H	-6.9857	1.7018	-1.9194
C	-8.8827	0.8939	-1.2715
H	-9.9636	0.9740	-1.5224
H	-8.7420	1.2564	-0.2291
C	-8.4300	-0.5733	-1.3637
H	-7.3520	-0.6167	-1.0772
C	-8.5595	-1.0864	-2.8083
H	-9.6251	-1.0709	-3.1278
H	-8.1968	-2.1363	-2.8570
C	-7.7095	-0.2110	-3.7451
H	-6.6522	-0.2559	-3.3924
C	-8.1708	1.2539	-3.6726
H	-7.5268	1.8738	-4.3344
H	-9.2216	1.3419	-4.0279
C	-6.7785	-1.2186	-5.7364
H	-5.8480	-1.3369	-5.1979
C	-6.8643	-1.6885	-7.1413
C	-5.6903	-2.0086	-7.8659
C	-5.7934	-2.6340	-9.1285
C	-7.0580	-2.8243	-9.7005
H	-7.1168	-3.2784	-10.6809
C	-8.2413	-2.4402	-9.0346
C	-8.1194	-1.8896	-7.7387
H	-8.9977	-1.6295	-7.1681
C	-9.6049	-2.6492	-9.7283
C	-10.8037	-2.1696	-8.8753
H	-11.7616	-2.3271	-9.4175
H	-10.7221	-1.0838	-8.6520
H	-10.8664	-2.7390	-7.9231
C	-9.8109	-4.1517	-10.0208
H	-9.7440	-4.7407	-9.0802
H	-9.0490	-4.5390	-10.7300
H	-10.8085	-4.3314	-10.4758
C	-9.6326	-1.8582	-11.0553
H	-8.8672	-2.2273	-11.7690
H	-9.4419	-0.7796	-10.8650
H	-10.6229	-1.9551	-11.5521
C	-8.6752	-2.1750	0.4336
H	-7.5966	-2.2522	0.4660
C	-9.4871	-2.9716	1.3882
C	-8.8928	-3.5498	2.5360
C	-9.6434	-4.4328	3.3451
C	-10.9969	-4.6520	3.0533
H	-11.5609	-5.3134	3.6972
C	-11.6311	-4.0305	1.9583
C	-10.8479	-3.2038	1.1233
H	-11.2775	-2.7433	0.2472
C	-13.1339	-4.2872	1.7071
C	-13.6894	-3.5218	0.4820
H	-13.1812	-3.8445	-0.4525
H	-13.5639	-2.4242	0.6103
H	-14.7752	-3.7200	0.3525
C	-13.3652	-5.7941	1.4621
H	-13.0975	-6.3999	2.3521
H	-12.7508	-6.1445	0.6044
H	-14.4332	-5.9972	1.2314
C	-13.9458	-3.8386	2.9421
H	-13.7578	-2.7639	3.1582
H	-13.6810	-4.4268	3.8447
H	-15.0363	-3.9737	2.7679
C	-1.0469	11.0494	-2.6088
H	-1.7884	11.7270	-3.0150
C	-3.0263	10.2861	4.2557
H	-3.5622	11.2245	4.3329
N	-5.6590	8.8357	-0.6568
N	-1.1830	10.5648	-1.4127
N	-2.7635	9.7826	3.0908
N	-8.5142	3.1589	-2.1544
N	-9.2242	-1.3997	-0.4535
N	-7.7998	-0.6979	-5.1225
O	-6.1385	6.2762	-0.6950
H	-6.0699	5.3471	-0.3034
O	-4.4170	-1.6880	-7.3717
H	-4.3908	-0.9180	-6.7176
O	-7.5796	-3.2380	2.9152
H	-7.2299	-2.3522	2.5783
C	-5.5700	-5.1185	7.8573
H	-6.2002	-5.6585	8.6006
C	-6.4628	-4.5705	6.7368
H	-5.8569	-3.9134	6.0721
H	-7.2647	-3.9444	7.1850
C	-7.1062	-5.6842	5.8996
H	-7.8241	-6.2526	6.5333
C	-6.0372	-6.6434	5.3539
H	-5.4115	-6.1029	4.6077
H	-6.5413	-7.4833	4.8285
C	-5.1255	-7.2087	6.4586
H	-5.7085	-7.8771	7.1328
C	-4.5112	-6.0727	7.2891
H	-3.8030	-5.4953	6.6510
H	-3.9281	-6.5094	8.1295
C	-5.1034	-3.5346	9.6689
H	-5.8259	-4.0243	10.3121
C	-4.3103	-2.3966	10.1897
C	-3.6301	-1.4922	9.3373
C	-2.7153	-0.5734	9.8815
C	-2.5761	-0.4753	11.2735
H	-1.8857	0.2533	11.6764
C	-3.3181	-1.2952	12.1486
C	-4.1697	-2.2684	11.5797
H	-4.7156	-2.9619	12.2027
C	-3.1526	-1.1192	13.6728
C	-1.6842	-1.3922	14.0658
H	-1.3833	-2.4117	13.7432
H	-1.5513	-1.3196	15.1672
H	-0.9929	-0.6602	13.5989
C	-3.5299	0.3268	14.0668
H	-2.8567	1.0707	13.5930
H	-3.4559	0.4671	15.1673
H	-4.5727	0.5511	13.7543
C	-4.0473	-2.0752	14.4986
H	-3.9090	-1.9006	15.5878
H	-3.7850	-3.1366	14.2981
H	-5.1213	-1.9096	14.2672
C	-1.9174	0.2826	8.9750
H	-1.9894	0.1183	7.9063
C	-0.3350	2.0548	8.5337
H	-0.4216	1.6876	7.4839
C	-0.8458	3.5034	8.5748
H	-0.7833	3.9027	9.6116
H	-1.9123	3.5241	8.2583
C	-0.0174	4.3746	7.6180
H	-0.1196	3.9532	6.5903
C	1.4713	4.3288	8.0031
H	1.6163	4.7701	9.0148
H	2.0557	4.9334	7.2752
C	1.9804	2.8771	7.9832
H	1.8495	2.4829	6.9483
C	1.1484	1.9994	8.9355
H	1.5068	0.9484	8.8725
H	1.2741	2.3476	9.9856
C	4.2983	2.2870	7.6099
H	3.9914	1.7980	6.6945
C	5.7324	2.2742	7.9920
C	6.7266	1.9032	7.0548
C	8.0597	1.7144	7.4850
C	8.4041	2.0075	8.8110
H	9.4353	1.8820	9.1148
C	7.4481	2.4576	9.7444
C	6.1064	2.5642	9.3158
H	5.3300	2.8557	10.0068
C	7.8918	2.7902	11.1860
C	6.7310	3.2858	12.0837
H	7.0982	3.5275	13.1048
H	5.9505	2.5028	12.1916
H	6.2741	4.2091	11.6656
C	8.9606	3.9050	11.1535
H	9.8777	3.5781	10.6187
H	9.2636	4.1923	12.1831
H	8.5613	4.8067	10.6414
C	8.4880	1.5284	11.8473
H	8.7711	1.7328	12.9031
H	9.4016	1.1832	11.3206
H	7.7455	0.7008	11.8392
C	-1.0656	6.3103	6.6180
H	-1.1906	5.7364	5.7069
C	-1.5286	7.7176	6.6415
C	-2.1921	8.2451	5.5192
C	-2.5333	9.6191	5.4851
C	-2.3396	10.4013	6.6318
H	-2.6343	11.4420	6.6009
C	-1.7497	9.8723	7.7998
C	-1.3189	8.5264	7.7706
H	-0.8242	8.0866	8.6228
C	-1.5872	10.7725	9.0438
C	-0.9385	10.0426	10.2462
H	-0.8558	10.7226	11.1216
H	0.0894	9.7001	9.9957
H	-1.5525	9.1701	10.5589
C	-0.6944	11.9832	8.6954
H	0.2957	11.6388	8.3248
H	-0.5304	12.6215	9.5906
H	-1.1569	12.6220	7.9145
C	-2.9763	11.2721	9.4983
H	-2.8931	11.8838	10.4229
H	-3.6470	10.4100	9.7082
H	-3.4557	11.9064	8.7238
C	-4.1440	-9.1481	5.3423
H	-5.0620	-9.7100	5.4671
C	-9.0589	-5.1216	4.5262
H	-9.7046	-5.6884	5.1862
N	-4.8788	-3.9935	8.4785
N	-4.0338	-7.9524	5.8340
N	-7.7865	-5.0603	4.7664
N	-1.1352	1.2163	9.4264
N	-0.5043	5.7540	7.6489
N	3.3932	2.8394	8.3619
O	-3.8710	-1.4500	7.9572
H	-4.8087	-1.7218	7.6912
O	6.4264	1.7504	5.6941
H	5.6179	2.2636	5.3704
O	-2.5372	7.3705	4.4798
H	-3.3776	7.6296	3.9808
C	-0.2132	-5.1199	-9.5547
H	-0.2914	-5.5985	-10.5584
C	0.7436	-3.9204	-9.6305
H	1.7121	-4.2555	-10.0638
H	0.9460	-3.5516	-8.5991
C	0.1887	-2.7648	-10.4766
H	0.1425	-3.0761	-11.5458
C	-1.2158	-2.3607	-10.0038
H	-1.6227	-1.5891	-10.6922
H	-1.1438	-1.9028	-8.9910
C	-2.1870	-3.5478	-9.9501
H	-2.3731	-3.9214	-10.9835
C	-1.6091	-4.6789	-9.0907
H	-2.2966	-5.5517	-9.1292
H	-1.5524	-4.3405	-8.0304
C	0.4008	-7.3433	-8.7231
H	0.1173	-7.7960	-9.6657
C	0.9571	-8.1895	-7.6399
C	0.9557	-7.7855	-6.2815
C	1.6802	-8.5274	-5.3311
C	2.3041	-9.7248	-5.7130
H	2.8405	-10.2928	-4.9667
C	2.2402	-10.1976	-7.0408
C	1.5677	-9.4017	-7.9954
H	1.5296	-9.6924	-9.0351
C	2.9176	-11.5374	-7.4025
C	2.2979	-12.6716	-6.5558
H	2.4793	-12.5193	-5.4716
H	2.7381	-13.6547	-6.8307
H	1.2002	-12.7213	-6.7226
C	4.4312	-11.4453	-7.1077
H	4.9488	-12.3826	-7.4063
H	4.6294	-11.2867	-6.0274
H	4.8830	-10.6016	-7.6726
C	2.7531	-11.9233	-8.8928
H	3.2328	-11.1688	-9.5535
H	1.6787	-12.0187	-9.1610
H	3.2368	-12.9020	-9.1028
C	1.7694	-8.0339	-3.9356
H	1.3548	-7.0600	-3.7030
C	2.4440	-8.2258	-1.6209
H	2.0857	-7.1696	-1.5719
C	3.9109	-8.2475	-1.1572
H	4.5205	-7.6118	-1.8364
H	4.3113	-9.2851	-1.2007
C	4.0123	-7.7006	0.2771
H	3.6227	-6.6553	0.2750
C	3.1369	-8.5269	1.2360
H	3.1937	-8.0877	2.2555
H	3.5118	-9.5737	1.2875
C	1.6745	-8.5129	0.7580
H	1.3293	-7.4518	0.7425
C	1.5726	-9.0664	-0.6733
H	1.8978	-10.1313	-0.6976
H	0.5136	-9.0185	-1.0100
C	-0.1837	-8.7876	2.2838
H	-0.4272	-7.7427	2.1292
C	-1.0411	-9.5922	3.1876
C	-2.2003	-9.0116	3.7358
C	-3.0021	-9.7566	4.6314
C	-2.6921	-11.0990	4.8839
H	-3.3348	-11.6586	5.5512
C	-1.5515	-11.7122	4.3207
C	-0.7257	-10.9285	3.4819
H	0.1651	-11.3462	3.0380
C	-1.2478	-13.1916	4.6435
C	0.0435	-13.7117	3.9647
H	0.9301	-13.1353	4.3091
H	-0.0347	-13.6431	2.8590
H	0.2205	-14.7790	4.2201
C	-1.0729	-13.3647	6.1689
H	-2.0058	-13.1257	6.7183
H	-0.2659	-12.6987	6.5427
H	-0.8023	-14.4142	6.4180
C	-2.4177	-14.0740	4.1570
H	-3.3616	-13.8280	4.6870
H	-2.2033	-15.1491	4.3403
H	-2.5810	-13.9309	3.0679
C	6.0729	-6.6209	0.9426
H	5.6022	-5.6690	0.7326
C	7.4750	-6.6399	1.4255
C	8.0841	-5.4590	1.9139
C	9.4695	-5.4468	2.1918
C	10.2035	-6.6353	2.0850
H	11.2583	-6.6128	2.3267
C	9.6032	-7.8445	1.6768
C	8.2344	-7.8193	1.3321
H	7.7414	-8.7068	0.9667
C	10.4583	-9.1288	1.6035
C	9.6567	-10.3709	1.1411
H	8.8189	-10.5843	1.8399
H	10.3076	-11.2730	1.1158
H	9.2548	-10.2242	0.1161
C	11.0356	-9.4417	3.0021
H	11.7075	-8.6339	3.3589
H	11.6282	-10.3820	2.9826
H	10.2134	-9.5629	3.7411
C	11.6168	-8.9208	0.6037
H	12.2138	-9.8518	0.4923
H	12.3108	-8.1225	0.9407
H	11.2184	-8.6385	-0.3950
C	-4.5987	-3.0939	-9.8833
H	-4.7166	-3.4690	-10.8937
C	1.7006	-0.9917	-11.2515
H	1.6127	-1.3364	-12.2749
N	0.3136	-6.0594	-8.5685
N	-3.4274	-3.0935	-9.3278
N	1.0697	-1.6126	-10.3047
N	2.3335	-8.7279	-2.9916
N	5.4046	-7.7152	0.7311
N	0.8358	-9.3019	1.6637
O	0.2098	-6.6852	-5.8374
H	-0.6159	-6.4919	-6.3885
O	-2.5588	-7.7189	3.3268
H	-3.5353	-7.4887	3.4501
O	7.3329	-4.3021	2.1660
H	6.3509	-4.4569	2.3476
C	10.5530	0.5809	2.0022
H	11.6334	0.6063	2.2721
C	10.1375	-0.8631	1.6870
H	10.8130	-1.2730	0.9043
H	9.1038	-0.8625	1.2723
C	10.1843	-1.7778	2.9196
H	11.2426	-1.9054	3.2459
C	9.3623	-1.1833	4.0724
H	9.4884	-1.8224	4.9748
H	8.2829	-1.1983	3.7977
C	9.7768	0.2545	4.4135
H	10.8120	0.2546	4.8246
C	9.7231	1.1448	3.1645
H	10.1014	2.1582	3.4236
H	8.6637	1.2547	2.8383
C	11.1653	2.0947	0.1682
H	12.2035	2.0862	0.4816
C	10.7666	2.8721	-1.0338
C	9.4106	3.0555	-1.3909
C	9.0859	3.7091	-2.6022
C	10.1119	4.2763	-3.3737
H	9.8514	4.7869	-4.2905
C	11.4674	4.1734	-2.9953
C	11.7738	3.4428	-1.8262
H	12.7967	3.3031	-1.5107
C	12.5516	4.8363	-3.8727
C	12.2794	6.3544	-3.9651
H	13.0734	6.8630	-4.5534
H	12.2553	6.8040	-2.9483
H	11.3108	6.5688	-4.4625
C	12.5163	4.2217	-5.2888
H	12.6642	3.1208	-5.2345
H	13.3197	4.6510	-5.9248
H	11.5504	4.4191	-5.7974
C	13.9848	4.6530	-3.3163
H	14.0758	5.0958	-2.3009
H	14.7282	5.1614	-3.9692
H	14.2611	3.5768	-3.2768
C	7.6880	3.7306	-3.0970
H	6.9704	3.0433	-2.6683
C	5.9223	4.5567	-4.5266
H	5.2812	3.9156	-3.8750
C	5.8299	4.0123	-5.9627
H	6.2066	2.9662	-5.9834
H	6.4590	4.6244	-6.6479
C	4.3642	4.0324	-6.4273
H	3.7697	3.4104	-5.7174
C	3.8057	5.4646	-6.3752
H	2.7377	5.4541	-6.6858
H	4.3655	6.1180	-7.0816
C	3.9119	6.0199	-4.9447
H	3.3137	5.3589	-4.2743
C	5.3719	5.9913	-4.4594
H	5.9964	6.6684	-5.0851
H	5.4162	6.3520	-3.4081
C	2.3570	7.7133	-4.1838
H	1.8507	6.9502	-3.6052
C	1.8334	9.1007	-4.1523
C	0.6326	9.3696	-3.4682
C	0.1403	10.6952	-3.4104
C	0.8093	11.7122	-4.1018
H	0.4040	12.7150	-4.0584
C	2.0054	11.4627	-4.8078
C	2.5089	10.1418	-4.8095
H	3.4269	9.9012	-5.3243
C	2.7187	12.6271	-5.5307
C	4.0141	12.1933	-6.2577
H	3.7949	11.4312	-7.0370
H	4.7543	11.7821	-5.5378
H	4.4912	13.0594	-6.7650
C	1.7696	13.2325	-6.5880
H	2.2778	14.0435	-7.1549
H	0.8642	13.6720	-6.1216
H	1.4477	12.4510	-7.3094
C	3.1022	13.7147	-4.5033
H	3.6581	14.5423	-4.9941
H	3.7487	13.2833	-3.7086
H	2.2066	14.1582	-4.0219
C	3.6543	2.3612	-8.0230
H	3.2816	1.7769	-7.1920
C	3.4984	1.8316	-9.4002
C	2.5869	0.7822	-9.6675
C	2.5730	0.1705	-10.9416
C	3.3904	0.6814	-11.9588
H	3.3462	0.2191	-12.9359
C	4.2555	1.7739	-11.7382
C	4.3067	2.3246	-10.4373
H	4.9865	3.1312	-10.2082
C	5.1136	2.3091	-12.9056
C	6.0051	3.5109	-12.5082
H	6.5932	3.8719	-13.3809
H	6.7311	3.2228	-11.7174
H	5.3862	4.3621	-12.1491
C	4.1879	2.7752	-14.0513
H	4.7811	3.2048	-14.8878
H	3.4832	3.5543	-13.6861
H	3.5937	1.9344	-14.4654
C	6.0423	1.1881	-13.4193
H	6.6813	0.8074	-12.5935
H	6.7046	1.5639	-14.2291
H	5.4652	0.3354	-13.8332
C	9.1231	1.2239	6.5706
H	10.1529	1.2056	6.9092
C	10.1816	-4.2115	2.6086
H	11.2150	-4.2728	2.9310
N	10.2887	1.3973	0.8215
N	8.8260	0.7819	5.3890
N	9.5898	-3.0603	2.5544
N	7.3076	4.5228	-4.0544
N	4.2478	3.4927	-7.7836
N	3.3930	7.3884	-4.8973
O	8.4135	2.6118	-0.5108
H	7.5268	3.0919	-0.5879
O	-0.0705	8.2945	-2.9065
H	-1.0496	8.4686	-2.7221
O	1.6579	0.3584	-8.7053
H	1.4260	1.0434	-7.9983
