468

C	-3.6633	9.9515	-2.6118
H	-4.0303	10.9779	-2.8402
C	-3.3048	9.8579	-1.1234
H	-3.0728	8.7983	-0.8673
H	-4.1859	10.1636	-0.5188
C	-2.1089	10.7423	-0.7494
H	-2.3862	11.8126	-0.8801
C	-0.8974	10.4113	-1.6319
H	-0.5426	9.3823	-1.3954
H	-0.0706	11.1159	-1.3913
C	-1.2148	10.5019	-3.1324
H	-1.4068	11.5653	-3.3997
C	-2.4407	9.6376	-3.4870
H	-2.1740	8.5629	-3.3665
H	-2.7086	9.8002	-4.5532
C	-5.9032	9.2046	-3.2799
H	-6.2090	10.2284	-3.4622
C	-6.8756	8.0998	-3.4909
C	-6.6093	6.7755	-3.0737
C	-7.5387	5.7479	-3.3615
C	-8.7638	6.0789	-3.9638
H	-9.4730	5.2886	-4.1671
C	-9.0787	7.4039	-4.3254
C	-8.1044	8.4012	-4.0959
H	-8.2833	9.4273	-4.3807
C	-10.4516	7.7103	-4.9649
C	-10.5945	6.9196	-6.2838
H	-10.5818	5.8233	-6.1082
H	-9.7650	7.1726	-6.9777
H	-11.5561	7.1615	-6.7857
C	-11.5759	7.2921	-3.9919
H	-11.4614	7.8207	-3.0205
H	-11.5653	6.1993	-3.7967
H	-12.5745	7.5436	-4.4109
C	-10.6523	9.2091	-5.2925
H	-9.8980	9.5590	-6.0306
H	-10.5829	9.8291	-4.3723
H	-11.6558	9.3847	-5.7381
C	-7.2051	4.3253	-3.1012
H	-6.1743	4.0471	-2.9231
C	-7.8020	1.9917	-2.8569
H	-6.7482	1.8909	-2.5032
C	-8.7261	1.4503	-1.7518
H	-9.7900	1.5764	-2.0517
H	-8.5591	2.0311	-0.8178
C	-8.4288	-0.0352	-1.4852
H	-7.3644	-0.1174	-1.1593
C	-8.5963	-0.8572	-2.7750
H	-9.6510	-0.8110	-3.1261
H	-8.3452	-1.9199	-2.5661
C	-7.6494	-0.3148	-3.8593
H	-6.6064	-0.3807	-3.4692
C	-7.9553	1.1648	-4.1447
H	-7.2429	1.5450	-4.9095
H	-8.9873	1.2712	-4.5470
C	-6.8084	-1.8485	-5.5288
H	-5.9011	-1.9293	-4.9456
C	-6.9283	-2.6237	-6.7884
C	-5.7867	-3.2199	-7.3778
C	-5.9416	-4.1103	-8.4636
C	-7.2132	-4.3026	-9.0194
H	-7.3090	-4.9657	-9.8691
C	-8.3566	-3.6573	-8.5023
C	-8.1912	-2.8333	-7.3661
H	-9.0433	-2.3606	-6.9022
C	-9.7272	-3.8864	-9.1755
C	-10.8780	-3.1034	-8.4992
H	-11.8414	-3.2875	-9.0230
H	-10.6854	-2.0092	-8.5312
H	-11.0100	-3.4246	-7.4436
C	-10.0866	-5.3874	-9.1183
H	-10.0917	-5.7431	-8.0650
H	-9.3621	-6.0040	-9.6914
H	-11.0927	-5.5686	-9.5536
C	-9.6579	-3.4297	-10.6500
H	-8.9280	-4.0301	-11.2315
H	-9.3572	-2.3610	-10.7086
H	-10.6477	-3.5413	-11.1448
C	-8.8595	-1.1385	0.6250
H	-7.7953	-1.3129	0.7118
C	-9.7604	-1.6043	1.7096
C	-9.2421	-1.9536	2.9801
C	-10.0896	-2.5431	3.9455
C	-11.4555	-2.6888	3.6657
H	-12.0924	-3.1214	4.4255
C	-12.0095	-2.2814	2.4351
C	-11.1352	-1.7555	1.4588
H	-11.5050	-1.4729	0.4854
C	-13.5282	-2.4389	2.1983
C	-13.9875	-1.9307	0.8105
H	-13.5062	-2.5123	-0.0054
H	-13.7490	-0.8516	0.6849
H	-15.0867	-2.0446	0.6929
C	-13.9137	-3.9306	2.3018
H	-13.7203	-4.3345	3.3167
H	-13.3305	-4.5316	1.5706
H	-14.9946	-4.0748	2.0875
C	-14.3015	-1.6349	3.2666
H	-14.0042	-0.5636	3.2338
H	-14.1093	-2.0185	4.2897
H	-15.3982	-1.6978	3.0907
C	0.1449	10.1779	-5.1362
H	-0.5171	10.8117	-5.7140
C	-1.9755	11.2456	1.6451
H	-2.4108	12.2246	1.4838
N	-4.6941	8.9536	-2.8852
N	-0.0538	10.0031	-3.8657
N	-1.7547	10.4595	0.6387
N	-8.1130	3.3970	-3.1228
N	-9.3148	-0.5421	-0.4362
N	-7.7759	-1.0995	-5.0884
O	-5.4389	6.5172	-2.3450
H	-5.4722	5.7036	-1.7464
O	-4.4921	-2.9206	-6.9276
H	-4.3922	-2.0254	-6.4695
O	-7.9075	-1.6938	3.3220
H	-7.4633	-0.9510	2.8011
C	-6.1581	-2.5540	8.6323
H	-6.8492	-2.8392	9.4582
C	-6.9767	-2.1978	7.3849
H	-6.2983	-1.7785	6.6073
H	-7.7132	-1.4075	7.6475
C	-7.7246	-3.4070	6.8072
H	-8.5047	-3.7367	7.5302
C	-6.7563	-4.5688	6.5364
H	-6.0696	-4.2833	5.7073
H	-7.3402	-5.4541	6.2031
C	-5.9205	-4.9473	7.7730
H	-6.5775	-5.3776	8.5633
C	-5.1993	-3.7152	8.3382
H	-4.4278	-3.3769	7.6085
H	-4.6740	-3.9985	9.2766
C	-5.5470	-0.6441	10.0421
H	-6.3235	-0.8950	10.7558
C	-4.6444	0.4996	10.3118
C	-3.8642	1.1067	9.2969
C	-2.8639	2.0317	9.6445
C	-2.7297	2.4390	10.9797
H	-1.9710	3.1694	11.2263
C	-3.5628	1.9251	11.9949
C	-4.5058	0.9353	11.6380
H	-5.1279	0.4651	12.3856
C	-3.3957	2.4361	13.4414
C	-1.9683	2.1180	13.9377
H	-1.7726	1.0266	13.8711
H	-1.8400	2.4333	14.9962
H	-1.1992	2.6478	13.3381
C	-3.6235	3.9643	13.4758
H	-2.8710	4.5057	12.8660
H	-3.5467	4.3506	14.5156
H	-4.6337	4.2117	13.0838
C	-4.3944	1.7942	14.4349
H	-4.2499	2.2046	15.4580
H	-4.2427	0.6947	14.4954
H	-5.4426	2.0069	14.1343
C	-1.9711	2.5677	8.5924
H	-2.0488	2.1655	7.5891
C	-0.2071	4.0206	7.8071
H	-0.3207	3.4281	6.8688
C	-0.5636	5.4819	7.4932
H	-0.4705	6.1048	8.4106
H	-1.6187	5.5338	7.1437
C	0.3616	6.0177	6.3897
H	0.2265	5.3794	5.4849
C	1.8331	5.9156	6.8264
H	2.0130	6.5650	7.7124
H	2.4853	6.2714	5.9987
C	2.1874	4.4563	7.1615
H	2.0268	3.8456	6.2425
C	1.2580	3.9136	8.2620
H	1.5048	2.8468	8.4571
H	1.4085	4.4840	9.2064
C	4.4344	3.5676	7.0160
H	4.0875	2.9107	6.2290
C	5.8551	3.5021	7.4402
C	6.8147	2.8248	6.6497
C	8.1162	2.6103	7.1581
C	8.4754	3.1703	8.3910
H	9.4845	3.0175	8.7513
C	7.5621	3.9195	9.1607
C	6.2436	4.0556	8.6728
H	5.4948	4.5767	9.2499
C	8.0231	4.5348	10.5003
C	6.9114	5.3400	11.2177
H	7.2911	5.7766	12.1670
H	6.0519	4.6858	11.4772
H	6.5582	6.1803	10.5812
C	9.2033	5.4989	10.2472
H	10.0865	4.9662	9.8349
H	9.5239	5.9880	11.1919
H	8.9061	6.2907	9.5262
C	8.4768	3.4103	11.4566
H	8.7687	3.8273	12.4454
H	9.3546	2.8621	11.0565
H	7.6517	2.6820	11.6150
C	-0.4673	7.7595	4.9321
H	-0.6423	7.0034	4.1752
C	-0.7805	9.1720	4.6123
C	-1.3732	9.4851	3.3759
C	-1.5681	10.8397	3.0121
C	-1.3054	11.8456	3.9520
H	-1.4890	12.8741	3.6702
C	-0.7865	11.5492	5.2306
C	-0.4990	10.1980	5.5295
H	-0.0621	9.9231	6.4771
C	-0.5436	12.6951	6.2367
C	0.0124	12.2065	7.5974
H	0.1567	13.0611	8.2934
H	1.0013	11.7143	7.4690
H	-0.6930	11.4972	8.0825
C	0.4748	13.6954	5.6480
H	1.4272	13.1770	5.4021
H	0.6954	14.5062	6.3758
H	0.0901	14.1761	4.7247
C	-1.8773	13.4230	6.5143
H	-1.7402	14.2229	7.2741
H	-2.6369	12.7053	6.8951
H	-2.2794	13.9025	5.5977
C	-5.1362	-7.1820	7.1720
H	-6.1093	-7.6048	7.3918
C	-9.5929	-2.9906	5.2738
H	-10.3015	-3.3198	6.0245
N	-5.3593	-1.3892	8.9991
N	-4.9064	-5.9215	7.3764
N	-8.3238	-3.0016	5.5372
N	-1.1002	3.4986	8.8416
N	0.0217	7.4073	6.0828
N	3.5844	4.3681	7.5874
O	-4.0849	0.8480	7.9371
H	-5.0431	0.6161	7.7091
O	6.5145	2.3879	5.3521
H	5.7677	2.8887	4.8903
O	-1.7972	8.4300	2.5565
H	-2.6005	8.6473	1.9820
C	-0.6487	-7.1694	-8.1074
H	-0.7662	-7.8597	-8.9748
C	0.4293	-6.1224	-8.4262
H	1.3619	-6.6444	-8.7360
H	0.6584	-5.5441	-7.5021
C	0.0076	-5.1480	-9.5361
H	-0.0598	-5.6950	-10.5048
C	-1.3517	-4.5067	-9.2190
H	-1.6682	-3.8813	-10.0814
H	-1.2427	-3.8336	-8.3383
C	-2.4425	-5.5454	-8.9251
H	-2.6560	-6.1304	-9.8494
C	-1.9955	-6.4953	-7.8071
H	-2.7703	-7.2799	-7.6659
H	-1.9147	-5.9252	-6.8530
C	-0.2800	-9.1857	-6.7618
H	-0.5995	-9.8162	-7.5828
C	0.1731	-9.8055	-5.4932
C	0.1999	-9.0962	-4.2665
C	0.8325	-9.6630	-3.1453
C	1.3315	-10.9726	-3.2171
H	1.7975	-11.4003	-2.3412
C	1.2322	-11.7346	-4.4003
C	0.6570	-11.1218	-5.5362
H	0.5995	-11.6428	-6.4808
C	1.7692	-13.1824	-4.4175
C	1.0251	-14.0191	-3.3528
H	1.2101	-13.6357	-2.3279
H	1.3627	-15.0781	-3.3765
H	-0.0700	-13.9970	-3.5415
C	3.2809	-13.1749	-4.0997
H	3.7005	-14.2028	-4.1546
H	3.4833	-12.7880	-3.0795
H	3.8246	-12.5364	-4.8290
C	1.5807	-13.8885	-5.7823
H	2.1438	-13.3615	-6.5830
H	0.5051	-13.9368	-6.0582
H	1.9613	-14.9324	-5.7427
C	0.9584	-8.8676	-1.9002
H	0.6457	-7.8300	-1.9144
C	1.5848	-8.5778	0.4179
H	1.3387	-7.5092	0.2080
C	3.0364	-8.6360	0.9246
H	3.7164	-8.2412	0.1380
H	3.3263	-9.6895	1.1370
C	3.1795	-7.7811	2.1955
H	2.9017	-6.7319	1.9374
C	2.2123	-8.2682	3.2889
H	2.3042	-7.6102	4.1801
H	2.4748	-9.3058	3.5949
C	0.7646	-8.2212	2.7703
H	0.5328	-7.1644	2.4970
C	0.6202	-9.0818	1.5039
H	0.8322	-10.1496	1.7386
H	-0.4243	-9.0090	1.1287
C	-1.1281	-7.9444	4.2527
H	-1.2591	-6.9459	3.8516
C	-2.0746	-8.4253	5.2882
C	-3.1721	-7.6200	5.6461
C	-4.0570	-8.0508	6.6618
C	-3.8922	-9.3206	7.2295
H	-4.5969	-9.6414	7.9857
C	-2.8162	-10.1590	6.8639
C	-1.9041	-9.6800	5.8953
H	-1.0574	-10.2765	5.5917
C	-2.6728	-11.5442	7.5315
C	-1.4361	-12.3348	7.0372
H	-0.4977	-11.7849	7.2690
H	-1.4951	-12.5199	5.9437
H	-1.3747	-13.3247	7.5392
C	-2.5330	-11.3716	9.0605
H	-3.4414	-10.9188	9.5068
H	-1.6646	-10.7201	9.2974
H	-2.3766	-12.3549	9.5556
C	-3.9236	-12.3952	7.2227
H	-4.8420	-11.9392	7.6481
H	-3.8251	-13.4132	7.6578
H	-4.0596	-12.4959	6.1252
C	5.3349	-6.7860	2.6634
H	4.9688	-5.8678	2.2220
C	6.7222	-6.8307	3.1859
C	7.4466	-5.6348	3.4078
C	8.8226	-5.6958	3.7232
C	9.4291	-6.9432	3.9207
H	10.4778	-6.9697	4.1870
C	8.7096	-8.1485	3.7836
C	7.3546	-8.0687	3.3951
H	6.7752	-8.9635	3.2288
C	9.4261	-9.4927	4.0401
C	8.5035	-10.7225	3.8509
H	7.6407	-10.6816	4.5507
H	9.0564	-11.6655	4.0583
H	8.1299	-10.7808	2.8066
C	9.9527	-9.5249	5.4922
H	10.7017	-8.7270	5.6749
H	10.4435	-10.4977	5.7120
H	9.1145	-9.3871	6.2101
C	10.6104	-9.6411	3.0601
H	11.1076	-10.6269	3.1886
H	11.3807	-8.8592	3.2265
H	10.2543	-9.5625	2.0099
C	-4.7939	-4.8509	-9.0492
H	-4.9399	-5.4387	-9.9484
C	1.7051	-3.7654	-10.6483
H	1.5922	-4.3299	-11.5662
N	-0.2337	-7.8992	-6.9124
N	-3.6350	-4.8368	-8.4686
N	1.0026	-4.0811	-9.6057
N	1.4366	-9.3736	-0.8019
N	4.5578	-7.8273	2.6885
N	-0.1616	-8.6885	3.8046
O	-0.4312	-7.8540	-4.1160
H	-1.2262	-7.7140	-4.7252
O	-3.3888	-6.4302	4.9362
H	-4.3370	-6.0815	4.9687
O	6.8182	-4.3822	3.3584
H	5.8236	-4.3917	3.5368
C	10.5342	-0.0190	2.1778
H	11.6083	-0.0387	2.4719
C	9.9728	-1.4480	2.1921
H	10.6098	-2.0949	1.5499
H	8.9493	-1.4417	1.7530
C	9.9105	-2.0483	3.6042
H	10.9462	-2.2005	3.9877
C	9.1434	-1.1213	4.5583
H	9.1923	-1.5404	5.5882
H	8.0713	-1.0928	4.2573
C	9.7028	0.3077	4.5707
H	10.7279	0.3012	5.0062
C	9.7558	0.8813	3.1480
H	10.2356	1.8845	3.1779
H	8.7172	1.0166	2.7687
C	11.3210	0.9542	0.0651
H	12.3493	0.9161	0.4078
C	11.0187	1.4639	-1.2976
C	9.6932	1.6924	-1.7344
C	9.4515	2.0729	-3.0748
C	10.5394	2.3385	-3.9208
H	10.3435	2.6433	-4.9395
C	11.8726	2.1927	-3.4820
C	12.0884	1.7298	-2.1654
H	13.0877	1.5669	-1.7907
C	13.0294	2.5203	-4.4511
C	12.9189	3.9937	-4.9026
H	13.7680	4.2687	-5.5649
H	12.9314	4.6693	-4.0193
H	11.9834	4.1809	-5.4695
C	12.9447	1.5976	-5.6862
H	12.9758	0.5309	-5.3729
H	13.7954	1.7837	-6.3762
H	12.0102	1.7654	-6.2600
C	14.4297	2.3308	-3.8179
H	14.5559	2.9880	-2.9305
H	15.2290	2.5955	-4.5447
H	14.5911	1.2719	-3.5203
C	8.0688	2.1168	-3.6093
H	7.2787	1.6240	-3.0580
C	6.4146	2.7563	-5.2520
H	5.7030	2.3528	-4.4921
C	6.2807	1.9024	-6.5248
H	6.5458	0.8485	-6.2892
H	6.9776	2.2712	-7.3111
C	4.8301	1.9588	-7.0320
H	4.1663	1.5828	-6.2182
C	4.4244	3.4115	-7.3331
H	3.3645	3.4349	-7.6697
H	5.0570	3.8222	-8.1520
C	4.5732	4.2733	-6.0678
H	3.9020	3.8507	-5.2834
C	6.0170	4.2141	-5.5386
H	6.7155	4.6601	-6.2823
H	6.0879	4.8049	-4.5988
C	3.1965	6.2440	-5.7750
H	2.6070	5.6919	-5.0530
C	2.8210	7.6451	-6.0844
C	1.6479	8.1849	-5.5236
C	1.2968	9.5294	-5.7920
C	2.0760	10.2842	-6.6769
H	1.7776	11.3045	-6.8815
C	3.2466	9.7585	-7.2637
C	3.6088	8.4306	-6.9415
H	4.5018	7.9859	-7.3541
C	4.0856	10.6440	-8.2119
C	5.3359	9.9253	-8.7729
H	5.0462	9.0274	-9.3612
H	6.0213	9.6227	-7.9520
H	5.9066	10.5965	-9.4505
C	3.2164	11.0762	-9.4131
H	3.8128	11.6770	-10.1347
H	2.3572	11.7006	-9.0931
H	2.8218	10.1833	-9.9443
C	4.5702	11.8985	-7.4523
H	5.2150	12.5284	-8.1021
H	5.1596	11.6033	-6.5572
H	3.7211	12.5293	-7.1183
C	3.9657	0.0393	-8.2200
H	3.5250	-0.2939	-7.2896
C	3.7695	-0.7801	-9.4414
C	2.7559	-1.7669	-9.4894
C	2.6912	-2.6557	-10.5865
C	3.5683	-2.4813	-11.6654
H	3.4861	-3.1531	-12.5095
C	4.5409	-1.4592	-11.6744
C	4.6358	-0.6269	-10.5359
H	5.3941	0.1392	-10.4768
C	5.4625	-1.3007	-12.9037
C	6.4710	-0.1340	-12.7652
H	7.1028	-0.0481	-13.6769
H	7.1544	-0.2995	-11.9044
H	5.9410	0.8348	-12.6351
C	4.6029	-1.0264	-14.1577
H	5.2466	-0.8660	-15.0499
H	3.9799	-0.1172	-14.0079
H	3.9282	-1.8774	-14.3857
C	6.2739	-2.5975	-13.1107
H	6.8608	-2.8357	-12.1974
H	6.9804	-2.4898	-13.9621
H	5.6150	-3.4618	-13.3352
C	9.1318	1.8159	6.4199
H	10.1504	1.7750	6.7891
C	9.6559	-4.4743	3.8664
H	10.6738	-4.5609	4.2300
N	10.3694	0.5201	0.8315
N	8.8024	1.1410	5.3635
N	9.1887	-3.3149	3.5261
N	7.7836	2.6963	-4.7370
N	4.6720	1.1306	-8.2294
N	4.2002	5.6594	-6.3572
O	8.6459	1.5689	-0.8105
H	7.8153	2.1033	-1.0276
O	0.8301	7.3469	-4.7524
H	-0.1273	7.6559	-4.6476
O	1.7775	-1.8588	-8.4879
H	1.6113	-1.0076	-7.9676
