150

C	1.1112	-2.3595	4.7895
C	0.6768	-2.8063	5.9869
H	-0.2375	-3.0403	6.0825
C	1.5834	-2.9495	7.1736
H	1.2704	-3.1366	8.0509
C	2.8713	-2.7876	6.8648
H	3.5289	-3.0977	7.4747
C	3.2617	-2.2075	5.7301
H	4.1738	-1.9563	5.6470
C	2.4008	-1.9483	4.6478
C	4.1211	-0.9147	3.3073
H	4.4092	-0.3382	4.0591
H	4.7147	-1.7065	3.2877
C	4.2643	-0.1541	2.0155
C	4.6150	-0.8886	0.7941
C	4.6564	-2.3810	0.8661
H	4.2912	-2.7535	0.0259
H	4.0743	-2.6844	1.6073
C	5.9653	-2.8977	1.0653
H	5.9241	-3.8731	1.1519
H	6.5304	-2.6641	0.2978
H	6.3488	-2.5132	1.8813
N	2.7944	-1.3383	3.5280
H	2.2002	-1.1931	2.8975
S	-0.0985	-2.0793	3.4884
C	2.7009	-2.4292	-4.0668
C	2.7123	-3.3307	-5.0725
H	1.8877	-3.5864	-5.4652
C	3.9780	-3.9459	-5.5924
H	3.9932	-4.6721	-6.2055
C	5.0754	-3.3629	-5.1060
H	5.9019	-3.5041	-5.5501
C	5.0472	-2.5910	-4.0203
H	5.8744	-2.3558	-3.6174
C	3.8627	-2.1031	-3.4378
C	5.0117	-0.9602	-1.6501
H	5.5550	-1.7607	-1.4396
H	5.5487	-0.3742	-2.2405
C	4.6992	-0.2247	-0.3739
C	4.5849	1.2379	-0.4068
C	4.6280	1.9115	-1.7409
H	3.9841	2.6607	-1.7435
H	4.3419	1.2659	-2.4361
C	5.9157	2.4103	-2.0770
H	5.8943	2.7952	-2.9776
H	6.1757	3.1038	-1.4329
H	6.5683	1.6799	-2.0490
N	3.8430	-1.3564	-2.3317
H	3.0663	-1.0990	-2.0129
S	1.1131	-1.8823	-3.4227
C	1.0533	5.3479	0.1469
C	0.6958	6.6077	-0.1856
H	-0.2181	6.7914	-0.3617
C	1.6869	7.7294	-0.2869
H	1.4741	8.5840	-0.6423
C	2.8932	7.3985	0.1778
H	3.5072	8.0913	0.3867
C	3.2619	6.1299	0.3566
H	4.1814	5.9488	0.5108
C	2.3669	5.0444	0.3312
C	4.0899	3.3966	0.7041
H	4.6614	3.7819	-0.0076
H	4.3914	3.7678	1.5708
C	4.2595	1.8997	0.7192
C	4.1611	1.1876	1.9981
C	3.7387	1.9690	3.2013
H	3.1459	1.4071	3.7574
H	3.2161	2.7570	2.9062
C	4.8310	2.4113	3.9955
H	4.4978	2.9549	4.7389
H	5.3116	1.6329	4.3536
H	5.4409	2.9464	3.4469
N	2.7502	3.7748	0.4802
H	2.1402	3.1443	0.4380
S	-0.1961	4.0564	0.0812
C	-0.6203	-4.3708	-3.2010
C	-0.0900	-5.2402	-4.0880
H	0.8505	-5.3630	-4.0998
C	-0.9292	-6.0188	-5.0576
H	-0.5650	-6.5324	-5.7697
C	-2.2365	-5.9157	-4.8107
H	-2.8253	-6.5516	-5.1971
C	-2.7395	-4.9515	-4.0408
H	-3.6796	-4.8174	-4.0492
C	-1.9580	-4.1219	-3.2153
C	-3.8467	-2.8478	-2.4199
H	-4.1869	-2.7108	-3.3394
H	-4.3263	-3.6210	-2.0296
C	-4.1348	-1.6199	-1.5975
C	-4.4207	-1.7743	-0.1665
C	-4.2544	-3.1327	0.4357
H	-3.8686	-3.0380	1.3403
H	-3.6122	-3.6508	-0.1128
C	-5.4724	-3.8589	0.5287
H	-5.2947	-4.7548	0.8833
H	-6.0889	-3.3875	1.1297
H	-5.8786	-3.9337	-0.3599
N	-2.4679	-3.1378	-2.4716
H	-1.9200	-2.6475	-1.9914
S	0.4964	-3.3782	-2.1997
C	-2.4717	-0.7121	4.8078
C	-2.3916	-1.0650	6.1094
H	-1.5531	-1.0026	6.5486
C	-3.5771	-1.5515	6.8897
H	-3.5121	-1.9232	7.7613
C	-4.7278	-1.4025	6.2307
H	-5.5411	-1.4439	6.7180
C	-4.7707	-1.1985	4.9140
H	-5.6087	-1.2836	4.4753
C	-3.6462	-0.8634	4.1374
C	-4.8830	-0.8044	2.0662
H	-5.3039	-1.6821	2.2519
H	-5.5142	-0.0977	2.3518
C	-4.6331	-0.6786	0.5859
C	-4.7221	0.6461	-0.0383
C	-4.9009	1.8296	0.8585
H	-4.3666	2.5827	0.5068
H	-4.5515	1.6073	1.7582
C	-6.2551	2.2432	0.9791
H	-6.3159	2.9877	1.6124
H	-6.5872	2.5361	0.1022
H	-6.8000	1.4954	1.3005
N	-3.6934	-0.6919	2.8148
H	-2.9497	-0.4988	2.3895
S	-0.9543	-0.2968	3.9372
C	-1.7733	4.5236	-2.4765
C	-1.6033	5.8344	-2.7505
H	-0.7294	6.2008	-2.7046
C	-2.7419	6.7360	-3.1267
H	-2.6605	7.6801	-3.1950
C	-3.8759	6.0711	-3.3554
H	-4.5721	6.5070	-3.8309
C	-4.0605	4.8183	-2.9397
H	-4.9407	4.4627	-2.9682
C	-3.0261	3.9920	-2.4637
C	-4.4931	2.1305	-2.0079
H	-5.1348	2.7096	-1.5246
H	-4.8145	2.0327	-2.9389
C	-4.4546	0.7759	-1.3508
C	-4.2177	-0.4101	-2.1822
C	-3.8682	-0.1951	-3.6195
H	-3.1858	-0.8592	-3.8871
H	-3.4686	0.7047	-3.7231
C	-4.9843	-0.3084	-4.4920
H	-4.7050	-0.1114	-5.4106
H	-5.3416	-1.2214	-4.4506
H	-5.6797	0.3262	-4.2187
N	-3.2260	2.7493	-2.0200
H	-2.5369	2.2938	-1.7211
S	-0.3611	3.5813	-1.8831
