150

C	1.1816	-2.3538	4.7754
C	0.7652	-2.7978	5.9802
H	-0.1479	-3.0298	6.0906
C	1.6901	-2.9408	7.1528
H	1.3905	-3.1258	8.0353
C	2.9732	-2.7819	6.8236
H	3.6398	-3.0923	7.4236
C	3.3470	-2.2044	5.6819
H	4.2581	-1.9551	5.5841
C	2.4697	-1.9454	4.6129
C	4.1707	-0.9172	3.2438
H	4.4717	-0.3401	3.9901
H	4.7624	-1.7103	3.2162
C	4.2951	-0.1591	1.9486
C	4.6252	-0.8963	0.7231
C	4.6648	-2.3886	0.7970
H	4.2857	-2.7618	-0.0368
H	4.0939	-2.6896	1.5477
C	5.9757	-2.9075	0.9764
H	5.9340	-3.8827	1.0654
H	6.5292	-2.6763	0.1998
H	6.3727	-2.5224	1.7857
N	2.8468	-1.3379	3.4860
H	2.2431	-1.1926	2.8647
S	-0.0478	-2.0734	3.4930
C	2.6321	-2.4411	-4.1046
C	2.6261	-3.3443	-5.1088
H	1.7949	-3.5991	-5.4881
C	3.8822	-3.9627	-5.6474
H	3.8864	-4.6900	-6.2595
C	4.9883	-3.3811	-5.1793
H	5.8074	-3.5246	-5.6361
C	4.9786	-2.6074	-4.0946
H	5.8124	-2.3731	-3.7051
C	3.8042	-2.1163	-3.4944
C	4.9834	-0.9727	-1.7268
H	5.5283	-1.7738	-1.5236
H	5.5122	-0.3887	-2.3266
C	4.6923	-0.2344	-0.4472
C	4.5803	1.2283	-0.4807
C	4.6038	1.8996	-1.8165
H	3.9613	2.6501	-1.8102
H	4.3055	1.2535	-2.5060
C	5.8870	2.3954	-2.1735
H	5.8522	2.7789	-3.0743
H	6.1584	3.0895	-1.5347
H	6.5385	1.6638	-2.1546
N	3.8033	-1.3677	-2.3894
H	3.0323	-1.1082	-2.0589
S	1.0557	-1.8901	-3.4366
C	1.0658	5.3461	0.1215
C	0.7054	6.6060	-0.2076
H	-0.2108	6.7912	-0.3696
C	1.6970	7.7256	-0.3262
H	1.4803	8.5801	-0.6797
C	2.9098	7.3932	0.1200
H	3.5283	8.0851	0.3181
C	3.2788	6.1241	0.2952
H	4.2002	5.9415	0.4352
C	2.3815	5.0404	0.2856
C	4.1069	3.3898	0.6342
H	4.6679	3.7728	-0.0870
H	4.4227	3.7618	1.4954
C	4.2739	1.8926	0.6491
C	4.1942	1.1828	1.9306
C	3.7922	1.9669	3.1390
H	3.2072	1.4071	3.7052
H	3.2666	2.7555	2.8508
C	4.8977	2.4084	3.9152
H	4.5772	2.9539	4.6628
H	5.3824	1.6298	4.2670
H	5.5000	2.9415	3.3562
N	2.7646	3.7703	0.4307
H	2.1528	3.1409	0.3992
S	-0.1871	4.0569	0.0774
C	-0.6788	-4.3748	-3.1836
C	-0.1641	-5.2468	-4.0773
H	0.7758	-5.3714	-4.1037
C	-1.0199	-6.0252	-5.0324
H	-0.6679	-6.5408	-5.7492
C	-2.3230	-5.9192	-4.7651
H	-2.9190	-6.5546	-5.1412
C	-2.8120	-4.9528	-3.9891
H	-3.7519	-4.8168	-3.9830
C	-2.0161	-4.1233	-3.1773
C	-3.8896	-2.8443	-2.3545
H	-4.2440	-2.7082	-3.2688
H	-4.3645	-3.6160	-1.9555
C	-4.1625	-1.6144	-1.5298
C	-4.4262	-1.7660	-0.0941
C	-4.2530	-3.1237	0.5076
H	-3.8529	-3.0283	1.4059
H	-3.6205	-3.6440	-0.0500
C	-5.4708	-3.8474	0.6209
H	-5.2893	-4.7430	0.9741
H	-6.0769	-3.3738	1.2307
H	-5.8911	-3.9229	-0.2611
N	-2.5123	-3.1371	-2.4273
H	-1.9561	-2.6471	-1.9566
S	0.4553	-3.3827	-2.2016
C	-2.3973	-0.6994	4.8471
C	-2.2976	-1.0503	6.1479
H	-1.4521	-0.9889	6.5738
C	-3.4716	-1.5332	6.9476
H	-3.3936	-1.9036	7.8186
C	-4.6322	-1.3831	6.3064
H	-5.4378	-1.4221	6.8065
C	-4.6953	-1.1812	4.9902
H	-5.5403	-1.2654	4.5648
C	-3.5826	-0.8495	4.1955
C	-4.8516	-0.7916	2.1438
H	-5.2711	-1.6681	2.3376
H	-5.4768	-0.0831	2.4381
C	-4.6247	-0.6687	0.6596
C	-4.7209	0.6552	0.0347
C	-4.8833	1.8405	0.9321
H	-4.3531	2.5920	0.5709
H	-4.5203	1.6190	1.8267
C	-6.2347	2.2569	1.0734
H	-6.2841	3.0026	1.7063
H	-6.5799	2.5490	0.2012
H	-6.7759	1.5108	1.4044
N	-3.6502	-0.6801	2.8735
H	-2.9128	-0.4892	2.4363
S	-0.8930	-0.2885	3.9522
C	-1.8033	4.5230	-2.4559
C	-1.6350	5.8330	-2.7348
H	-0.7599	6.1978	-2.7032
C	-2.7777	6.7361	-3.0946
H	-2.6956	7.6800	-3.1657
C	-3.9164	6.0731	-3.3043
H	-4.6191	6.5095	-3.7696
C	-4.0969	4.8213	-2.8837
H	-4.9781	4.4674	-2.8978
C	-3.0567	3.9938	-2.4226
C	-4.5200	2.1359	-1.9408
H	-5.1529	2.7170	-1.4485
H	-4.8561	2.0372	-2.8665
C	-4.4738	0.7824	-1.2820
C	-4.2522	-0.4055	-2.1151
C	-3.9248	-0.1935	-3.5580
H	-3.2480	-0.8593	-3.8352
H	-3.5252	0.7053	-3.6694
C	-5.0548	-0.3061	-4.4128
H	-4.7895	-0.1112	-5.3359
H	-5.4131	-1.2184	-4.3642
H	-5.7446	0.3303	-4.1297
N	-3.2520	2.7522	-1.9737
H	-2.5592	2.2959	-1.6849
S	-0.3837	3.5789	-1.8832
