354

B	-6.4081	2.5156	6.1514
B	-7.5773	0.4183	5.4508
B	-7.9747	2.5500	4.2047
B	-2.7906	4.3232	-8.0137
B	-1.4744	2.4169	-8.9562
B	-0.3145	4.5256	-8.2839
B	8.1395	4.4650	2.3854
B	8.5617	2.3897	3.7133
B	7.1593	4.2237	4.6734
B	2.3334	-9.1125	0.1126
B	0.8359	-9.1285	-1.8900
B	-0.1189	-9.5116	0.3882
O	-6.6509	1.0885	6.3655
O	-8.2548	1.1209	4.3584
O	-7.0705	3.2758	5.0945
O	-2.7738	2.9684	-8.5703
O	-0.2321	3.1786	-8.8462
O	-1.5786	5.1290	-7.8618
O	8.7750	3.1502	2.4813
O	7.7780	2.9087	4.8345
O	7.3297	5.0317	3.4657
O	2.1819	-8.9740	-1.3375
O	-0.3270	-9.4302	-1.0565
O	1.2008	-9.3718	1.0045
N	0.5807	7.1644	11.5790
C	0.6480	7.9304	12.8243
H	1.0207	8.9543	12.6101
H	1.3439	7.4307	13.5300
C	-5.3618	3.2523	7.0588
C	-5.1005	4.6128	6.8633
H	-5.6335	5.1637	6.0965
C	-4.1458	5.2832	7.6419
C	-3.4369	4.5720	8.6427
C	-3.7060	3.1943	8.8459
C	-4.6663	2.5525	8.0514
H	-4.8625	1.4977	8.2082
C	-3.9179	6.7474	7.3566
H	-3.5922	6.8717	6.3026
H	-3.1481	7.2080	8.0060
H	-4.8671	7.3040	7.5053
C	-2.9940	2.3656	9.8859
H	-2.2546	2.9407	10.4766
H	-2.4582	1.5308	9.3885
H	-3.7382	1.9413	10.5931
C	-0.5017	6.5853	10.9965
C	-1.8288	6.5779	11.4408
H	-2.1301	7.0697	12.3552
C	-2.7872	5.9076	10.6606
H	-3.8200	5.8918	10.9854
C	-2.4155	5.2596	9.4580
C	-1.0744	5.2773	9.0292
H	-0.7721	4.7887	8.1112
C	-0.1463	5.9487	9.8221
C	1.2069	6.1385	9.6700
C	2.0914	5.7176	8.6813
H	1.7483	5.1297	7.8393
C	3.4482	6.0755	8.8161
C	3.8759	6.8423	9.9269
H	4.9199	7.1142	10.0294
C	2.9582	7.2534	10.9093
H	3.2873	7.8372	11.7588
C	1.6189	6.8832	10.7557
C	6.2136	4.7496	5.8096
C	6.0062	3.9818	6.9628
H	6.5251	3.0371	7.0867
C	5.1177	4.4047	7.9612
C	4.4244	5.6308	7.8035
C	4.6471	6.4185	6.6496
C	5.5417	5.9702	5.6644
H	5.7002	6.5700	4.7761
C	4.9308	3.5079	9.1601
H	5.9039	3.3718	9.6753
H	4.5598	2.5169	8.8252
H	4.2081	3.9073	9.8990
C	3.9293	7.7294	6.4536
H	4.2183	8.2212	5.5003
H	4.1772	8.4209	7.2870
H	2.8329	7.5588	6.4335
N	-8.2482	-9.5234	6.1580
C	-9.0981	-10.5246	6.8030
H	-8.4931	-11.1211	7.5171
H	-9.5236	-11.2018	6.0327
C	-7.7978	-1.1275	5.6132
C	-7.1516	-1.8246	6.6410
H	-6.5186	-1.2900	7.3399
C	-7.2982	-3.2135	6.7697
C	-8.1110	-3.9203	5.8531
C	-8.7855	-3.2144	4.8254
C	-8.6206	-1.8243	4.7197
H	-9.1292	-1.2923	3.9231
C	-6.5755	-3.9306	7.8834
H	-5.9933	-3.2288	8.5171
H	-5.8716	-4.6750	7.4576
H	-7.3111	-4.4510	8.5330
C	-9.6761	-3.8941	3.8155
H	-9.7582	-4.9884	3.9703
H	-9.2752	-3.7220	2.7945
H	-10.6983	-3.4645	3.8767
C	-8.3708	-8.1696	6.1740
C	-9.3395	-7.3891	6.8165
H	-10.1376	-7.8299	7.3967
C	-9.2513	-5.9899	6.6987
H	-9.9878	-5.3684	7.1930
C	-8.2098	-5.3914	5.9491
C	-7.2509	-6.1957	5.3051
H	-6.4456	-5.7553	4.7291
C	-7.3614	-7.5755	5.4413
C	-6.5819	-8.5976	4.9516
C	-5.4408	-8.5822	4.1567
H	-5.0166	-7.6491	3.8077
C	-4.8592	-9.8202	3.8165
C	-5.4318	-11.0283	4.2823
H	-4.9839	-11.9783	4.0159
C	-6.5865	-11.0109	5.0857
H	-7.0244	-11.9348	5.4394
C	-7.1469	-9.7700	5.4062
C	-1.3779	-9.6790	1.3087
C	-2.6532	-9.7720	0.7380
H	-2.7685	-9.7642	-0.3410
C	-3.7983	-9.8560	1.5409
C	-3.6629	-9.8430	2.9508
C	-2.3742	-9.7737	3.5306
C	-1.2438	-9.6960	2.7026
H	-0.2578	-9.6275	3.1492
C	-5.1358	-9.9388	0.8477
H	-5.2959	-9.0223	0.2428
H	-5.9885	-10.0421	1.5470
H	-5.1477	-10.8203	0.1708
C	-2.1938	-9.7633	5.0271
H	-2.7195	-8.8887	5.4639
H	-1.1225	-9.6997	5.3135
H	-2.6126	-10.6957	5.4605
N	-11.2895	7.4471	-3.8302
C	-12.4759	8.2328	-4.1733
H	-12.4210	8.6272	-5.2062
H	-12.5678	9.0913	-3.4747
C	-8.6130	3.3301	3.0019
C	-9.4294	2.6678	2.0764
H	-9.6438	1.6131	2.2049
C	-9.9576	3.3525	0.9696
C	-9.6638	4.7233	0.7913
C	-8.8535	5.3975	1.7330
C	-8.3384	4.6933	2.8316
H	-7.7107	5.2123	3.5463
C	-10.8168	2.6080	-0.0189
H	-10.9560	1.5448	0.2724
H	-10.3417	2.6307	-1.0226
H	-11.8184	3.0832	-0.0779
C	-8.5195	6.8585	1.5699
H	-7.9802	7.0168	0.6118
H	-7.8732	7.2300	2.3927
H	-9.4538	7.4585	1.5667
C	-11.0482	6.8345	-2.6443
C	-11.8608	6.8121	-1.5076
H	-12.8148	7.3224	-1.4868
C	-11.4035	6.1049	-0.3794
H	-12.0144	6.0763	0.5140
C	-10.1534	5.4400	-0.4037
C	-9.3544	5.4758	-1.5628
H	-8.3947	4.9752	-1.5976
C	-9.8341	6.1819	-2.6605
C	-9.2959	6.3963	-3.9057
C	-8.0972	5.9676	-4.4665
H	-7.4023	5.3599	-3.9005
C	-7.8235	6.3415	-5.7949
C	-8.7458	7.1351	-6.5171
H	-8.5300	7.4216	-7.5392
C	-9.9495	7.5572	-5.9218
H	-10.6452	8.1607	-6.4865
C	-10.2041	7.1693	-4.6005
C	-4.1503	4.9019	-7.4878
C	-4.1878	6.1509	-6.8553
H	-3.2805	6.7373	-6.7557
C	-5.3849	6.6520	-6.3222
C	-6.5706	5.8847	-6.4291
C	-6.5377	4.6327	-7.0883
C	-5.3286	4.1560	-7.6132
H	-5.3047	3.1901	-8.1063
C	-5.3399	7.9934	-5.6338
H	-4.9628	8.7612	-6.3424
H	-4.6506	7.9395	-4.7639
H	-6.3294	8.3310	-5.2661
C	-7.7815	3.7897	-7.2204
H	-8.1667	3.5280	-6.2133
H	-7.5834	2.8449	-7.7696
H	-8.5595	4.3547	-7.7751
N	-0.8616	-7.2119	-11.5387
C	-1.0107	-8.0268	-12.7440
H	-0.0649	-8.5756	-12.9410
H	-1.2459	-7.4077	-13.6312
C	-1.3971	0.9308	-9.4523
C	-2.5567	0.1520	-9.5397
H	-3.5176	0.5831	-9.2822
C	-2.4897	-1.1904	-9.9458
C	-1.2365	-1.7600	-10.2742
C	-0.0638	-0.9709	-10.1950
C	-0.1589	0.3660	-9.7847
H	0.7444	0.9620	-9.7190
C	-3.7552	-2.0070	-10.0075
H	-3.6726	-2.8804	-9.3281
H	-3.9208	-2.3651	-11.0454
H	-4.6445	-1.4152	-9.7014
C	1.3071	-1.5042	-10.5307
H	1.9589	-1.4387	-9.6347
H	1.7531	-0.8932	-11.3436
H	1.2971	-2.5599	-10.8692
C	-0.9877	-5.8649	-11.4044
C	-1.2862	-4.9169	-12.3898
H	-1.4500	-5.1925	-13.4209
C	-1.3705	-3.5660	-12.0061
H	-1.5972	-2.8156	-12.7541
C	-1.1582	-3.1829	-10.6610
C	-0.8613	-4.1528	-9.6854
H	-0.6970	-3.8770	-8.6508
C	-0.7841	-5.4815	-10.0931
C	-0.5205	-6.6305	-9.3850
C	-0.2583	-6.8393	-8.0348
H	-0.2322	-6.0112	-7.3365
C	-0.0455	-8.1633	-7.6040
C	-0.0940	-9.2310	-8.5331
H	0.0653	-10.2484	-8.1984
C	-0.3617	-8.9873	-9.8928
H	-0.4054	-9.8051	-10.5993
C	-0.5759	-7.6661	-10.2937
C	0.6132	-8.9072	-3.4263
C	1.6883	-8.5672	-4.2581
H	2.6847	-8.4777	-3.8406
C	1.4879	-8.3277	-5.6262
C	0.1874	-8.4378	-6.1718
C	-0.8978	-8.7874	-5.3358
C	-0.6727	-9.0192	-3.9710
H	-1.5088	-9.2785	-3.3314
C	2.6633	-7.9520	-6.4922
H	2.7785	-8.6924	-7.3106
H	3.6109	-7.9282	-5.9121
H	2.5011	-6.9447	-6.9287
C	-2.2978	-8.9001	-5.8830
H	-3.0308	-9.1673	-5.0921
H	-2.3334	-9.6877	-6.6653
H	-2.6058	-7.9303	-6.3264
N	8.2641	9.2596	-6.3774
C	9.1191	10.1988	-7.1024
H	9.4394	9.7436	-8.0637
H	10.0247	10.4613	-6.5214
C	1.0173	5.3257	-8.0700
C	2.2440	4.7491	-8.4201
H	2.2722	3.7582	-8.8588
C	3.4482	5.4315	-8.2037
C	3.4238	6.7209	-7.6170
C	2.1850	7.3101	-7.2711
C	0.9930	6.6068	-7.5031
H	0.0454	7.0573	-7.2307
C	4.7270	4.7369	-8.6039
H	5.6327	5.3501	-8.4292
H	4.6897	4.4907	-9.6855
H	4.8320	3.7956	-8.0258
C	2.1232	8.6787	-6.6419
H	2.5731	9.4272	-7.3281
H	2.6832	8.6764	-5.6839
H	1.0778	8.9890	-6.4299
C	7.0911	8.7398	-6.8167
C	6.4504	8.9818	-8.0346
H	6.8736	9.6536	-8.7704
C	5.2349	8.3206	-8.2869
H	4.7241	8.4879	-9.2271
C	4.6832	7.4360	-7.3286
C	5.3456	7.2123	-6.1054
H	4.9392	6.5360	-5.3624
C	6.5465	7.8816	-5.8853
C	7.4146	7.8643	-4.8190
C	7.3680	7.1771	-3.6097
H	6.5419	6.5167	-3.3754
C	8.4267	7.3708	-2.7011
C	9.4963	8.2365	-3.0287
H	10.3111	8.3809	-2.3290
C	9.5178	8.9191	-4.2589
H	10.3407	9.5777	-4.4927
C	8.4538	8.7148	-5.1468
C	8.2673	5.2682	1.0428
C	7.6303	6.5070	0.9012
H	7.0708	6.9267	1.7291
C	7.6932	7.2153	-0.3072
C	8.4096	6.6683	-1.4025
C	9.0691	5.4223	-1.2549
C	8.9911	4.7391	-0.0318
H	9.4902	3.7808	0.0692
C	6.9756	8.5408	-0.3764
H	7.0962	9.0565	-1.3489
H	7.3686	9.2156	0.4131
H	5.8899	8.3815	-0.2035
C	9.8493	4.7710	-2.3703
H	10.9021	4.6259	-2.0485
H	9.8597	5.3649	-3.3060
H	9.4051	3.7800	-2.6029
N	11.2971	-7.1961	4.0979
C	12.4654	-7.9427	4.5655
H	12.5951	-7.7819	5.6554
H	13.3724	-7.5848	4.0335
C	9.1241	0.9278	3.8090
C	9.8075	0.3577	2.7268
H	9.9771	0.9396	1.8284
C	10.2568	-0.9718	2.7833
C	10.0172	-1.7409	3.9449
C	9.3453	-1.1612	5.0456
C	8.9086	0.1694	4.9673
H	8.3840	0.6062	5.8087
C	10.9739	-1.5611	1.5962
H	11.9876	-1.8957	1.8998
H	11.0857	-0.8238	0.7727
H	10.4038	-2.4302	1.2057
C	9.0706	-1.9565	6.2965
H	10.0285	-2.3007	6.7393
H	8.4432	-2.8387	6.0497
H	8.5343	-1.3545	7.0593
C	11.1458	-5.8488	4.1178
C	12.0491	-4.8915	4.5889
H	13.0088	-5.1756	4.9995
C	11.6740	-3.5366	4.5217
H	12.3562	-2.7780	4.8869
C	10.4159	-3.1631	3.9900
C	9.5237	-4.1467	3.5200
H	8.5557	-3.8778	3.1149
C	9.9227	-5.4767	3.6011
C	9.2812	-6.6405	3.2476
C	8.0231	-6.8600	2.6960
H	7.3663	-6.0324	2.4573
C	7.6316	-8.1919	2.4603
C	8.5043	-9.2588	2.7842
H	8.1987	-10.2821	2.6058
C	9.7716	-9.0054	3.3407
H	10.4241	-9.8310	3.5875
C	10.1425	-7.6741	3.5635
C	3.7585	-8.9106	0.7399
C	3.9414	-8.9983	2.1247
H	3.0996	-9.2270	2.7685
C	5.2015	-8.7796	2.7005
C	6.3076	-8.4704	1.8685
C	6.1247	-8.3948	0.4634
C	4.8529	-8.6175	-0.0817
H	4.7225	-8.5517	-1.1566
C	5.3056	-8.8657	4.2033
H	6.3277	-8.6797	4.5857
H	4.9940	-9.8774	4.5386
H	4.6288	-8.1142	4.6632
C	7.2483	-8.0766	-0.4935
H	7.3666	-8.9124	-1.2151
H	8.2241	-7.9226	0.0069
H	7.0031	-7.1511	-1.0557
H	-0.3429	8.0123	13.3097
H	-9.9341	-10.0567	7.3573
H	-13.3806	7.5955	-4.0873
H	-1.8328	-8.7584	-12.5999
H	8.5538	11.1304	-7.3118
H	12.3588	-9.0278	4.3773
