138

C	6.4428	-0.3098	0.3367
C	6.6742	0.9409	-0.2688
H	6.6110	1.8391	0.3297
C	6.7917	1.0577	-1.6662
C	6.8793	-0.1139	-2.4383
H	6.9900	-0.0281	-3.5117
C	6.5980	-1.3682	-1.8728
C	6.4190	-1.4555	-0.4799
H	6.0936	-2.3957	-0.0548
C	5.9205	-0.4002	1.7377
C	6.0773	-1.5815	2.4930
H	6.7402	-2.3675	2.1550
C	5.3001	-1.8074	3.6359
H	5.3561	-2.7673	4.1342
C	4.3894	-0.8361	4.0758
C	4.3338	0.3960	3.4122
H	3.6201	1.1511	3.7206
C	5.0768	0.6088	2.2493
H	4.8942	1.5212	1.6999
C	3.3055	-1.1831	5.0193
C	2.4063	-2.1949	4.6641
H	2.6088	-2.8311	3.8117
C	1.1644	-2.2904	5.2930
H	0.4592	-2.9972	4.8804
C	0.7982	-1.3907	6.3197
C	1.7796	-0.4834	6.7787
H	1.5756	0.1909	7.5988
C	3.0073	-0.3604	6.1144
H	3.6942	0.4227	6.4104
C	-0.6462	-1.2462	6.7089
C	-1.5698	-2.2802	6.4534
H	-1.2362	-3.2878	6.2453
C	-2.9321	-1.9982	6.3101
H	-3.5724	-2.7851	5.9364
C	-3.4133	-0.6853	6.4783
C	-2.5315	0.2717	7.0141
H	-2.8738	1.2728	7.2437
C	-1.1612	0.0072	7.0961
H	-0.5120	0.8353	7.3408
C	-4.6771	-0.2554	5.7980
C	-5.7047	-1.1735	5.4975
H	-5.7493	-2.1327	5.9955
C	-6.6006	-0.9206	4.4473
H	-7.2980	-1.6974	4.1610
C	-6.4865	0.2551	3.6796
C	-5.6152	1.2599	4.1406
H	-5.4862	2.1851	3.5977
C	-4.7235	1.0069	5.1780
H	-3.9687	1.7577	5.3674
C	6.3758	2.3346	-2.3169
C	5.4117	2.2841	-3.3399
H	5.1358	1.3458	-3.8009
C	4.6386	3.3994	-3.6473
H	3.8133	3.2512	-4.3285
C	4.8088	4.6102	-2.9489
C	5.9062	4.7148	-2.0674
H	6.1117	5.6420	-1.5480
C	6.6743	3.5854	-1.7459
H	7.4332	3.6679	-0.9783
C	3.6840	5.6004	-2.9230
C	2.7422	5.6444	-3.9724
H	2.9723	5.2201	-4.9411
C	1.4331	6.0753	-3.7330
H	0.6970	5.9192	-4.5101
C	1.0552	6.5288	-2.4565
C	2.0712	6.7510	-1.5071
H	1.8375	7.1730	-0.5377
C	3.3639	6.2687	-1.7257
H	4.0556	6.2978	-0.8957
C	-0.3772	6.4764	-2.0300
C	-1.4358	6.6540	-2.9436
H	-1.2462	7.0263	-3.9420
C	-2.7462	6.2768	-2.6035
H	-3.5287	6.3654	-3.3468
C	-3.0248	5.7286	-1.3378
C	-1.9835	5.6526	-0.3973
H	-2.1411	5.2077	0.5767
C	-0.6854	6.0179	-0.7370
H	0.0908	5.8275	-0.0073
C	-4.3168	5.0490	-1.0337
C	-4.9411	4.2307	-1.9917
H	-4.6335	4.2607	-3.0292
C	-5.8634	3.2506	-1.5956
H	-6.2713	2.6017	-2.3572
C	-6.1367	3.0300	-0.2269
C	-5.6585	3.9908	0.6922
H	-5.8419	3.9136	1.7521
C	-4.7831	4.9970	0.2886
H	-4.3692	5.6552	1.0426
C	6.1076	-2.4860	-2.7337
C	6.2121	-3.8258	-2.3132
H	6.8738	-4.0940	-1.4985
C	5.3556	-4.8027	-2.8372
H	5.3721	-5.7971	-2.4095
C	4.3869	-4.4583	-3.7990
C	4.4257	-3.1694	-4.3557
H	3.6945	-2.8602	-5.0907
C	5.2694	-2.1945	-3.8274
H	5.1446	-1.1816	-4.1830
C	3.1551	-5.2747	-3.9743
C	2.5196	-5.7959	-2.8339
H	3.0317	-5.8322	-1.8806
C	1.1534	-6.0785	-2.8534
H	0.6733	-6.3222	-1.9144
C	0.3927	-5.8473	-4.0136
C	1.0694	-5.5266	-5.2049
H	0.5175	-5.3776	-6.1251
C	2.4406	-5.2444	-5.1855
H	2.9106	-4.8813	-6.0910
C	-1.0747	-5.6279	-3.8848
C	-1.8301	-6.3557	-2.9491
H	-1.4290	-7.2546	-2.4981
C	-3.0492	-5.8528	-2.4787
H	-3.5565	-6.3742	-1.6771
C	-3.5358	-4.6189	-2.9450
C	-2.8707	-3.9887	-4.0092
H	-3.2148	-3.0349	-4.3877
C	-1.6517	-4.4873	-4.4744
H	-1.0999	-3.8938	-5.1909
C	-4.5361	-3.8538	-2.1573
C	-4.3897	-3.7786	-0.7627
H	-3.6517	-4.3842	-0.2510
C	-5.0863	-2.8227	-0.0250
H	-4.8531	-2.7289	1.0271
C	-5.9653	-1.9249	-0.6587
C	-6.1915	-2.0681	-2.0414
H	-6.8718	-1.4035	-2.5572
C	-5.4773	-3.0183	-2.7845
H	-5.6159	-3.0589	-3.8582
C	-6.9370	0.3012	2.2510
C	-7.0590	1.5442	1.6048
H	-7.2873	2.4106	2.2091
C	-6.6559	1.7015	0.2627
C	-6.4202	0.5317	-0.4940
H	-6.0337	0.6049	-1.4992
C	-6.4926	-0.7465	0.0894
C	-6.7759	-0.8488	1.4607
H	-6.7118	-1.8174	1.9355
