138

C	6.4529	0.1703	0.2251
C	6.6455	-1.1081	-0.3344
H	6.5714	-1.9806	0.2998
C	6.7375	-1.2820	-1.7277
C	6.8395	-0.1436	-2.5464
H	6.9306	-0.2737	-3.6173
C	6.5963	1.1380	-2.0263
C	6.4421	1.2836	-0.6354
H	6.1454	2.2470	-0.2425
C	5.9556	0.3274	1.6293
C	6.1520	1.5331	2.3352
H	6.8271	2.2895	1.9565
C	5.3989	1.8216	3.4801
H	5.4850	2.7985	3.9395
C	4.4734	0.8899	3.9719
C	4.3786	-0.3654	3.3581
H	3.6528	-1.0908	3.7068
C	5.0974	-0.6408	2.1931
H	4.8850	-1.5692	1.6828
C	3.4132	1.2989	4.9176
C	2.5319	2.3171	4.5368
H	2.7350	2.9147	3.6571
C	1.3029	2.4663	5.1805
H	0.6076	3.1730	4.7514
C	0.9329	1.6161	6.2472
C	1.9005	0.7044	6.7263
H	1.6944	0.0675	7.5752
C	3.1141	0.5267	6.0486
H	3.7875	-0.2603	6.3645
C	-0.5079	1.5210	6.6640
C	-1.4115	2.5659	6.3823
H	-1.0582	3.5564	6.1298
C	-2.7821	2.3107	6.2712
H	-3.4101	3.0974	5.8768
C	-3.2905	1.0171	6.4981
C	-2.4224	0.0611	7.0575
H	-2.7839	-0.9219	7.3315
C	-1.0453	0.2961	7.1079
H	-0.4113	-0.5369	7.3749
C	-4.5749	0.5911	5.8548
C	-5.5858	1.5208	5.5343
H	-5.6002	2.4994	5.9950
C	-6.5043	1.2486	4.5088
H	-7.1882	2.0299	4.2030
C	-6.4298	0.0416	3.7862
C	-5.5744	-0.9649	4.2728
H	-5.4757	-1.9133	3.7647
C	-4.6604	-0.6929	5.2856
H	-3.9201	-1.4535	5.4927
C	6.2817	-2.5729	-2.3214
C	5.3025	-2.5395	-3.3306
H	5.0408	-1.6135	-3.8237
C	4.4991	-3.6473	-3.5820
H	3.6664	-3.5062	-4.2558
C	4.6527	-4.8338	-2.8393
C	5.7616	-4.9299	-1.9714
H	5.9542	-5.8408	-1.4192
C	6.5607	-3.8074	-1.7063
H	7.3299	-3.8778	-0.9478
C	3.5060	-5.7953	-2.7573
C	2.5464	-5.8578	-3.7895
H	2.7705	-5.4770	-4.7776
C	1.2318	-6.2480	-3.5133
H	0.4870	-6.1049	-4.2845
C	0.8644	-6.6424	-2.2143
C	1.8904	-6.8516	-1.2726
H	1.6629	-7.2299	-0.2840
C	3.1902	-6.4088	-1.5299
H	3.8944	-6.4220	-0.7101
C	-0.5592	-6.5397	-1.7682
C	-1.6363	-6.7276	-2.6578
H	-1.4717	-7.1428	-3.6435
C	-2.9321	-6.3066	-2.3126
H	-3.7284	-6.4055	-3.0397
C	-3.1773	-5.7031	-1.0652
C	-2.1193	-5.6153	-0.1446
H	-2.2507	-5.1292	0.8135
C	-0.8357	-6.0242	-0.4896
H	-0.0435	-5.8239	0.2200
C	-4.4481	-4.9819	-0.7682
C	-5.0690	-4.1869	-1.7478
H	-4.7791	-4.2645	-2.7880
C	-5.9619	-3.1706	-1.3764
H	-6.3671	-2.5424	-2.1565
C	-6.2077	-2.8906	-0.0133
C	-5.7368	-3.8260	0.9353
H	-5.9011	-3.7033	1.9940
C	-4.8915	-4.8675	0.5580
H	-4.4807	-5.5055	1.3308
C	6.1179	2.2328	-2.9228
C	6.2600	3.5851	-2.5568
H	6.9409	3.8691	-1.7636
C	5.4178	4.5608	-3.1056
H	5.4641	5.5705	-2.7175
C	4.4258	4.2023	-4.0381
C	4.4259	2.8922	-4.5443
H	3.6759	2.5720	-5.2553
C	5.2554	1.9189	-3.9912
H	5.1016	0.8962	-4.3048
C	3.2105	5.0402	-4.2264
C	2.6058	5.6202	-3.0976
H	3.1341	5.6814	-2.1545
C	1.2464	5.9340	-3.1072
H	0.7873	6.2254	-2.1711
C	0.4617	5.6760	-4.2456
C	1.1113	5.2932	-5.4336
H	0.5412	5.1217	-6.3387
C	2.4758	4.9797	-5.4243
H	2.9225	4.5707	-6.3220
C	-1.0081	5.4965	-4.0857
C	-1.7312	6.2777	-3.1678
H	-1.3021	7.1838	-2.7586
C	-2.9536	5.8225	-2.6593
H	-3.4357	6.3864	-1.8710
C	-3.4761	4.5832	-3.0693
C	-2.8431	3.8966	-4.1180
H	-3.2152	2.9372	-4.4534
C	-1.6207	4.3477	-4.6212
H	-1.0945	3.7140	-5.3222
C	-4.4807	3.8732	-2.2369
C	-4.3134	3.8488	-0.8427
H	-3.5534	4.4563	-0.3667
C	-5.0197	2.9390	-0.0575
H	-4.7716	2.8807	0.9938
C	-5.9294	2.0383	-0.6418
C	-6.1747	2.1329	-2.0254
H	-6.8785	1.4651	-2.5043
C	-5.4511	3.0364	-2.8162
H	-5.6061	3.0384	-3.8884
C	-6.9045	-0.0494	2.3676
C	-7.0656	-1.3134	1.7726
H	-7.3038	-2.1500	2.4139
C	-6.6881	-1.5322	0.4317
C	-6.4379	-0.3986	-0.3739
H	-6.0697	-0.5200	-1.3813
C	-6.4714	0.9026	0.1599
C	-6.7299	1.0649	1.5303
H	-6.6358	2.0494	1.9658
