298

C	-8.7975	0.8267	-0.4365
C	-10.1562	1.0571	-0.7729
C	-11.1646	0.8243	0.1593
H	-12.2008	1.0080	-0.0937
C	-10.8209	0.3507	1.4312
H	-11.6027	0.1775	2.1588
C	-9.4795	0.0826	1.7660
C	-8.4574	0.3361	0.8251
H	-7.4155	0.1822	1.0696
N	-9.1930	-0.3971	3.0866
C	-8.1574	-1.1064	3.4233
H	-7.4547	-1.4352	2.6680
C	-7.9486	-1.5162	4.8323
C	-8.7149	-0.9325	5.8567
H	-9.4406	-0.1827	5.5827
C	-8.5447	-1.3039	7.2056
C	-9.3655	-0.6769	8.3539
C	-10.4161	0.3513	7.8670
H	-11.1423	-0.1236	7.1722
H	-9.9265	1.2101	7.3594
H	-10.9946	0.7604	8.7242
C	-8.4110	0.0531	9.3246
H	-8.9790	0.5552	10.1366
H	-7.8236	0.8243	8.7798
H	-7.6979	-0.6497	9.8038
C	-10.1206	-1.7905	9.1135
H	-10.7795	-2.3523	8.4166
H	-10.7526	-1.3585	9.9201
H	-9.4229	-2.5090	9.5898
C	-7.5586	-2.2652	7.5021
H	-7.3783	-2.5477	8.5310
C	-6.7603	-2.8407	6.5034
C	-6.9873	-2.4969	5.1475
O	-6.3238	-3.1427	4.0971
H	-5.9473	-4.0516	4.3293
C	-5.6623	-3.7309	6.9419
H	-5.7646	-4.2255	7.8978
N	-4.5310	-3.7583	6.3018
C	-3.3474	-4.4784	6.6886
C	-3.3533	-5.4828	7.6898
H	-4.2714	-5.8027	8.1609
C	-2.1585	-6.0886	8.1047
H	-2.1693	-6.8340	8.8890
C	-0.9567	-5.7009	7.5145
C	-0.9498	-4.7390	6.4729
C	-2.1385	-4.1354	6.0613
H	-2.1191	-3.3708	5.2947
C	0.4430	-4.3858	5.9554
H	0.4471	-3.6373	5.1327
C	1.0768	-5.7255	5.5867
C	1.6950	-6.0179	4.3705
H	1.7225	-5.2748	3.5837
C	2.3261	-7.2598	4.1945
N	3.0072	-7.5037	2.9534
C	3.9902	-8.3358	2.7791
H	4.3574	-8.9335	3.6032
C	2.2773	-8.2253	5.2308
H	2.7138	-9.2055	5.1002
C	1.6520	-7.9340	6.4504
H	1.6365	-8.6692	7.2452
C	1.0674	-6.6813	6.6349
C	0.4316	-6.1848	7.9307
H	0.4287	-6.9315	8.7537
C	1.1960	-4.8997	8.2544
C	1.8653	-4.6323	9.4472
H	1.8733	-5.3594	10.2494
C	2.5337	-3.4089	9.5967
H	3.0562	-3.2019	10.5222
C	2.5297	-2.4471	8.5670
C	1.8647	-2.7291	7.3533
H	1.8799	-2.0367	6.5238
C	1.2004	-3.9452	7.2049
N	3.2523	-1.2227	8.7767
C	3.0836	-0.1135	8.1189
H	2.3003	-0.0399	7.3791
C	3.9067	1.0826	8.4262
C	4.0015	2.1692	7.5192
O	3.4584	2.1015	6.2290
H	3.2724	1.1712	5.8828
C	4.6923	3.3406	7.9063
C	5.3217	3.3901	9.1581
H	5.8527	4.2925	9.4331
C	5.2922	2.3036	10.0510
C	6.0387	2.4076	11.3995
C	5.9437	1.1184	12.2526
H	6.3716	0.2501	11.7052
H	4.8892	0.8990	12.5272
H	6.5142	1.2300	13.2004
C	5.4416	3.5642	12.2302
H	4.3560	3.3985	12.3983
H	5.5705	4.5421	11.7212
H	5.9425	3.6364	13.2212
C	7.5362	2.6813	11.1396
H	8.1069	2.6984	12.0929
H	7.6957	3.6620	10.6436
H	7.9657	1.8879	10.4892
C	4.5634	1.1590	9.6681
H	4.4772	0.3192	10.3398
C	-8.3045	0.3289	-2.7438
C	-9.6635	0.5532	-3.0782
C	-10.2534	-0.1425	-4.1310
H	-11.2924	0.0225	-4.3850
C	-9.4853	-1.0597	-4.8567
H	-9.9444	-1.5976	-5.6768
C	-8.1309	-1.2893	-4.5428
C	-7.5379	-0.5873	-3.4667
H	-6.5090	-0.7415	-3.1768
N	-7.4158	-2.2431	-5.3467
C	-6.1493	-2.5321	-5.2943
H	-5.4984	-2.0237	-4.6002
C	-5.5615	-3.5261	-6.2275
C	-6.3887	-4.2465	-7.1103
H	-7.4519	-4.0646	-7.0721
C	-5.8587	-5.1939	-8.0104
C	-6.7423	-6.0202	-8.9732
C	-8.2504	-5.6904	-8.8585
H	-8.8431	-6.3027	-9.5733
H	-8.4428	-4.6224	-9.0992
H	-8.6297	-5.9128	-7.8382
C	-6.5688	-7.5232	-8.6646
H	-5.5224	-7.8549	-8.8301
H	-7.2216	-8.1386	-9.3202
H	-6.8370	-7.7328	-7.6072
C	-6.3177	-5.7434	-10.4332
H	-5.2811	-6.0851	-10.6328
H	-6.3758	-4.6551	-10.6529
H	-6.9815	-6.2793	-11.1461
C	-4.4618	-5.3692	-8.0294
H	-4.0204	-6.0644	-8.7327
C	-3.6103	-4.6382	-7.1882
C	-4.1713	-3.7548	-6.2316
O	-3.3895	-3.1235	-5.2549
H	-2.5435	-3.6204	-5.0130
C	-2.1516	-4.7847	-7.4152
H	-1.7981	-5.6619	-7.9467
N	-1.3102	-3.8565	-7.0717
C	0.0948	-3.8985	-7.3601
C	0.5823	-4.4180	-8.5827
H	-0.1031	-4.7795	-9.3372
C	1.9594	-4.4706	-8.8406
H	2.3239	-4.8886	-9.7691
C	2.8498	-4.0072	-7.8735
C	2.3661	-3.4720	-6.6518
C	0.9953	-3.3984	-6.4066
H	0.6312	-3.0045	-5.4651
C	3.4610	-3.1129	-5.6494
H	3.0816	-2.6994	-4.6895
C	4.3944	-2.1759	-6.4113
C	4.8256	-0.9282	-5.9618
H	4.4736	-0.5447	-5.0127
C	5.7451	-0.1915	-6.7274
N	6.2100	1.0586	-6.1893
C	7.2184	1.7650	-6.6037
H	7.8217	1.4256	-7.4335
C	6.1902	-0.7056	-7.9706
H	6.8671	-0.1490	-8.5999
C	5.7581	-1.9611	-8.4216
H	6.1191	-2.3546	-9.3627
C	4.8738	-2.7000	-7.6380
C	4.3731	-4.1080	-7.9553
H	4.7530	-4.5237	-8.9141
C	4.7514	-4.9299	-6.7239
C	5.4492	-6.1354	-6.7431
H	5.8151	-6.5442	-7.6751
C	5.6356	-6.8337	-5.5430
H	6.1497	-7.7866	-5.5636
C	5.1351	-6.3363	-4.3247
C	4.4471	-5.1020	-4.3059
H	4.0111	-4.7034	-3.4019
C	4.2612	-4.4051	-5.4997
N	5.2556	-7.1717	-3.1613
C	5.0150	-6.8366	-1.9290
H	4.7328	-5.8249	-1.6794
C	5.0718	-7.8535	-0.8496
C	4.6315	-7.5313	0.4476
O	4.2777	-6.2034	0.7218
H	4.3613	-5.9358	1.6931
C	4.5918	-8.5405	1.4431
C	5.0971	-9.8153	1.1504
H	5.0762	-10.5691	1.9282
C	5.5932	-10.1439	-0.1264
C	6.1352	-11.5653	-0.3920
C	6.6576	-11.7616	-1.8378
H	7.4851	-11.0533	-2.0598
H	5.8402	-11.6170	-2.5777
H	7.0531	-12.7908	-1.9784
C	5.0113	-12.5983	-0.1589
H	5.3642	-13.6255	-0.3920
H	4.1393	-12.3731	-0.8123
H	4.6659	-12.5968	0.8954
C	7.3100	-11.8549	0.5683
H	6.9830	-11.8453	1.6289
H	8.1074	-11.0913	0.4431
H	7.7493	-12.8562	0.3662
C	5.5522	-9.1468	-1.1226
H	5.9015	-9.3574	-2.1214
C	-8.1339	2.5996	-1.9371
C	-9.4939	2.8192	-2.2750
C	-9.9298	4.0832	-2.6648
H	-10.9667	4.2523	-2.9254
C	-9.0069	5.1335	-2.7251
H	-9.3434	6.1125	-3.0405
C	-7.6559	4.9343	-2.3828
C	-7.2145	3.6510	-1.9900
H	-6.1767	3.4552	-1.7625
N	-6.7620	6.0500	-2.5087
C	-5.6077	6.1859	-1.9265
H	-5.2582	5.4402	-1.2248
C	-4.7867	7.3966	-2.1696
C	-5.1047	8.2566	-3.2361
H	-5.9357	7.9918	-3.8706
C	-4.3678	9.4323	-3.4811
C	-4.6903	10.3953	-4.6452
C	-5.9269	9.9624	-5.4725
H	-6.1331	10.6933	-6.2850
H	-6.8344	9.9127	-4.8322
H	-5.7582	8.9745	-5.9518
C	-3.4833	10.4571	-5.6069
H	-3.7045	11.1103	-6.4785
H	-3.2388	9.4405	-5.9848
H	-2.5822	10.8670	-5.1048
C	-4.9762	11.8067	-4.0859
H	-5.8107	11.7697	-3.3534
H	-5.2591	12.5058	-4.9027
H	-4.0864	12.2353	-3.5798
C	-3.2802	9.7113	-2.6314
H	-2.6773	10.5929	-2.8080
C	-2.9219	8.8571	-1.5782
C	-3.7046	7.7028	-1.3215
O	-3.4775	6.8793	-0.2100
H	-2.9466	7.3069	0.5369
C	-1.6999	9.2045	-0.8182
H	-1.4084	10.2448	-0.7908
N	-0.9063	8.2822	-0.3620
C	0.3566	8.4922	0.2949
C	0.7857	9.7687	0.7424
H	0.1544	10.6394	0.6556
C	2.0528	9.9386	1.3177
H	2.3791	10.9191	1.6377
C	2.8905	8.8347	1.4587
C	2.4525	7.5482	1.0540
C	1.1941	7.3791	0.4777
H	0.8775	6.3977	0.1456
C	3.4910	6.4450	1.2438
H	3.1465	5.4357	0.9285
C	3.8911	6.5410	2.7148
C	3.8574	5.4902	3.6340
H	3.5253	4.5083	3.3210
C	4.2694	5.7115	4.9594
N	4.2239	4.6019	5.8749
C	4.8164	4.5335	7.0292
H	5.4404	5.3466	7.3715
C	4.6831	7.0080	5.3547
H	4.9621	7.2244	6.3757
C	4.7171	8.0630	4.4326
H	5.0359	9.0491	4.7438
C	4.3294	7.8286	3.1144
C	4.3201	8.8707	1.9980
H	4.6650	9.8801	2.3113
C	5.1555	8.2397	0.8836
C	6.2537	8.8320	0.2597
H	6.5994	9.8104	0.5654
C	6.8979	8.1481	-0.7825
H	7.7433	8.6116	-1.2753
C	6.4419	6.8881	-1.2132
C	5.3516	6.2766	-0.5541
H	5.0060	5.2896	-0.8293
C	4.7119	6.9541	0.4818
N	7.1245	6.2433	-2.3024
C	6.5874	5.3634	-3.0938
H	5.5370	5.1284	-3.0009
C	7.3703	4.7268	-4.1810
C	6.9311	3.5249	-4.7873
O	5.8434	2.8023	-4.2782
H	5.6079	2.9904	-3.3139
C	7.6204	3.0188	-5.9135
C	8.7593	3.6871	-6.3835
H	9.2775	3.2810	-7.2428
C	9.2521	4.8486	-5.7589
C	10.5354	5.5163	-6.3022
C	10.9658	6.7626	-5.4911
H	10.1860	7.5543	-5.5357
H	11.9028	7.1980	-5.9027
H	11.1601	6.4956	-4.4301
C	10.3036	5.9645	-7.7618
H	9.4412	6.6629	-7.8192
H	10.0967	5.1003	-8.4270
H	11.2012	6.4852	-8.1622
C	11.7044	4.5070	-6.2548
H	11.5197	3.6333	-6.9143
H	11.8532	4.1367	-5.2181
H	12.6500	4.9812	-6.5962
C	8.5328	5.3595	-4.6576
H	8.8495	6.2690	-4.1710
C	-7.8103	1.1544	-1.5562
H	-6.7444	0.9807	-1.2891
C	-10.3714	1.5746	-2.1917
H	-11.4375	1.7492	-2.4566
