244

O	0.8773	7.4356	1.7144
H	-0.0684	7.5494	1.3777
C	1.6692	8.5891	1.6502
C	1.3487	9.6754	0.7920
C	2.1002	10.8573	0.8680
H	1.8542	11.6949	0.2256
C	3.1891	10.9627	1.7383
C	3.5369	9.8731	2.5429
H	4.3933	9.9569	3.2015
C	2.7892	8.6822	2.5054
C	3.9831	12.2354	1.7813
H	4.4375	12.4253	0.7863
H	4.7966	12.1851	2.5362
H	3.3148	13.0828	2.0435
C	0.2735	9.6232	-0.2228
H	-0.2220	10.5507	-0.4783
C	3.1785	7.5288	3.3517
H	2.5972	6.6203	3.2894
N	-0.0105	8.5223	-0.8521
N	4.2138	7.5990	4.1356
O	-0.6589	0.5815	-7.4759
H	-1.5546	0.9543	-7.1915
C	-0.3551	0.7682	-8.8309
C	0.5167	-0.1521	-9.4545
C	0.7442	-0.0617	-10.8389
H	1.4031	-0.7678	-11.3294
C	0.1140	0.9249	-11.6051
C	-0.7173	1.8583	-10.9796
H	-1.1719	2.6412	-11.5768
C	-0.9353	1.8184	-9.5938
C	0.3363	1.0038	-13.0878
H	1.0334	0.2137	-13.4399
H	0.7666	1.9930	-13.3485
H	-0.6318	0.8768	-13.6152
C	1.1683	-1.2190	-8.6590
H	0.9862	-1.2570	-7.5956
C	-1.7156	2.9277	-8.9993
H	-2.3964	3.4736	-9.6410
N	1.9354	-2.1002	-9.2318
N	-1.5310	3.3027	-7.7684
O	7.3956	-1.4033	0.4815
H	6.9740	-2.2715	0.1846
C	8.4881	-0.9721	-0.2833
C	9.3775	-0.0232	0.2788
C	10.5309	0.3499	-0.4273
H	11.2171	1.0694	0.0040
C	10.8111	-0.1910	-1.6847
C	9.9200	-1.1031	-2.2556
H	10.1357	-1.4870	-3.2461
C	8.7474	-1.4919	-1.5824
C	12.0463	0.2116	-2.4365
H	12.6383	0.9673	-1.8771
H	11.7631	0.6471	-3.4178
H	12.6862	-0.6800	-2.6061
C	9.1650	0.5981	1.6090
H	9.9616	1.2102	2.0113
C	7.7824	-2.3765	-2.2821
H	6.7532	-2.3958	-1.9600
N	8.0312	0.5123	2.2401
N	8.1682	-3.1005	-3.2907
O	-0.4316	-1.9737	7.3801
H	-0.8227	-2.8548	7.0789
C	-0.6949	-1.6365	8.7143
C	-1.7734	-2.2149	9.4402
C	-1.9035	-1.9451	10.8105
H	-2.7168	-2.3933	11.3707
C	-1.0218	-1.0737	11.4581
C	0.0069	-0.4697	10.7326
H	0.6759	0.2121	11.2448
C	0.1832	-0.7423	9.3643
C	-1.1767	-0.7707	12.9198
H	-1.3281	0.3195	13.0613
H	-0.2602	-1.0834	13.4630
H	-2.0456	-1.3058	13.3600
C	-2.8160	-3.0611	8.8190
H	-3.3136	-3.7934	9.4410
C	1.3039	-0.1158	8.6211
H	1.3607	-0.2426	7.5493
N	-3.1930	-2.8665	7.5910
N	2.2311	0.5337	9.2584
O	-1.0710	-7.5108	-1.5587
H	-1.8709	-6.9162	-1.3924
C	-1.2014	-8.8351	-1.1193
C	-2.1962	-9.2113	-0.1756
C	-2.3450	-10.5688	0.1629
H	-3.0980	-10.8699	0.8815
C	-1.5038	-11.5422	-0.3844
C	-0.4976	-11.1626	-1.2733
H	0.1590	-11.9238	-1.6804
C	-0.3318	-9.8215	-1.6505
C	-1.6566	-12.9883	-0.0082
H	-0.7183	-13.3530	0.4603
H	-1.8652	-13.5899	-0.9181
H	-2.4894	-13.1400	0.7101
C	-3.0208	-8.2020	0.5332
H	-2.6504	-7.1934	0.6151
C	0.7535	-9.5087	-2.6133
H	1.3857	-10.3220	-2.9428
N	-4.1254	-8.5530	1.1214
N	0.9717	-8.2977	-3.0288
O	-7.8170	0.9887	-0.7018
H	-8.0322	0.0011	-0.7000
C	-8.8115	1.8071	-0.1503
C	-8.8362	3.1716	-0.5125
C	-9.8843	3.9926	-0.0570
H	-9.9117	5.0407	-0.3295
C	-10.9003	3.4718	0.7512
C	-10.8603	2.1273	1.1304
H	-11.6323	1.7400	1.7865
C	-9.8126	1.2929	0.7177
C	-12.0162	4.3482	1.2431
H	-11.9164	5.3882	0.8672
H	-12.0067	4.3749	2.3534
H	-12.9896	3.9411	0.8988
C	-7.7683	3.7335	-1.3738
H	-6.9346	3.1053	-1.6550
C	-9.7670	-0.0709	1.2875
H	-10.7036	-0.5391	1.5541
N	-7.8453	4.9541	-1.8151
N	-8.6311	-0.6248	1.5864
C	-2.8813	5.5120	-5.0933
C	-2.2942	4.4206	-5.7369
H	-1.9539	3.5699	-5.1598
C	-2.1618	4.4279	-7.1366
C	-2.5969	5.5559	-7.8742
H	-2.4636	5.6045	-8.9454
C	-3.1772	6.6552	-7.2287
H	-3.5033	7.5149	-7.8009
C	-3.3223	6.6324	-5.8421
C	-3.9378	7.7480	-5.0002
H	-4.2796	8.6280	-5.5877
C	-5.0438	7.0569	-4.2070
C	-6.3727	7.4708	-4.1512
H	-6.7035	8.3384	-4.7071
C	-7.2773	6.7559	-3.3561
H	-8.3088	7.0824	-3.3071
C	-6.8675	5.6229	-2.6281
C	-5.5144	5.2160	-2.6711
H	-5.1553	4.3815	-2.0850
C	-4.6105	5.9315	-3.4598
C	-3.1153	5.6348	-3.5870
H	-2.7734	4.7548	-2.9995
C	-2.4373	6.9501	-3.2017
C	-1.4879	7.1083	-2.1881
H	-1.1661	6.2523	-1.6085
C	-0.9758	8.3884	-1.9106
C	-1.3974	9.4940	-2.6909
H	-0.9838	10.4795	-2.5354
C	-2.3481	9.3346	-3.7059
H	-2.6716	10.1884	-4.2877
C	-2.8726	8.0688	-3.9549
C	3.2474	-6.0796	-4.9635
C	2.2837	-6.5194	-4.0545
H	1.7791	-5.8062	-3.4140
C	1.9778	-7.8875	-3.9709
C	2.6331	-8.8030	-4.8319
H	2.3900	-9.8560	-4.8243
C	3.5984	-8.3625	-5.7473
H	4.0914	-9.0686	-6.4023
C	3.9070	-7.0048	-5.8114
C	4.9229	-6.3728	-6.7604
H	5.4397	-7.0969	-7.4262
C	4.1301	-5.2965	-7.5006
C	4.0402	-5.1684	-8.8845
H	4.5416	-5.8721	-9.5363
C	3.3011	-4.1089	-9.4255
H	3.2385	-4.0057	-10.5018
C	2.6469	-3.1770	-8.5961
C	2.7399	-3.3103	-7.1908
H	2.2779	-2.6075	-6.5153
C	3.4742	-4.3688	-6.6518
C	3.6817	-4.6286	-5.1605
H	3.1659	-3.9043	-4.4941
C	5.2006	-4.6601	-4.9946
C	5.9343	-3.8419	-4.1328
H	5.4062	-3.1202	-3.5276
C	7.3435	-3.9476	-4.1100
C	7.9846	-4.8644	-4.9652
H	9.0657	-4.9340	-4.9661
C	7.2494	-5.6871	-5.8291
H	7.7570	-6.3816	-6.4863
C	5.8586	-5.5843	-5.8441
C	5.0243	4.2056	5.5354
C	4.3724	5.1907	4.7924
H	3.6208	4.8853	4.0811
C	4.7574	6.5430	4.9448
C	5.7807	6.8736	5.8560
H	6.0872	7.9063	5.9670
C	6.4362	5.8852	6.6001
H	7.2373	6.1529	7.2773
C	6.0686	4.5513	6.4296
C	6.7582	3.3551	7.0821
H	7.5812	3.6288	7.7779
C	5.6211	2.5721	7.7312
C	5.5471	2.2386	9.0818
H	6.3432	2.5126	9.7613
C	4.4196	1.5568	9.5536
H	4.3572	1.3072	10.6056
C	3.3704	1.1970	8.6868
C	3.4453	1.5420	7.3178
H	2.6407	1.3207	6.6316
C	4.5708	2.2243	6.8452
C	4.7823	2.7016	5.4072
H	3.9594	2.4319	4.7100
C	6.1489	2.1470	5.0079
C	6.4275	1.4603	3.8233
H	5.6308	1.2388	3.1246
C	7.7571	1.1273	3.5120
C	8.7873	1.4246	4.4379
H	9.8102	1.1343	4.2433
C	8.5088	2.1113	5.6263
H	9.3093	2.3679	6.3080
C	7.1965	2.4909	5.9014
C	-5.3137	-4.1236	4.8112
C	-4.2772	-3.5051	5.5075
H	-3.4941	-2.9865	4.9675
C	-4.2561	-3.5537	6.9108
C	-5.2998	-4.2173	7.6027
H	-5.3331	-4.2368	8.6829
C	-6.3449	-4.8360	6.9031
H	-7.1439	-5.3318	7.4404
C	-6.3556	-4.7864	5.5095
C	-7.4389	-5.3785	4.6080
H	-8.2568	-5.8944	5.1568
C	-6.6719	-6.2736	3.6380
C	-6.9012	-7.6344	3.4450
H	-7.7014	-8.1370	3.9713
C	-6.0625	-8.3512	2.5828
H	-6.2282	-9.4142	2.4523
C	-4.9918	-7.7243	1.9166
C	-4.7852	-6.3341	2.0870
H	-3.9851	-5.8077	1.5896
C	-5.6224	-5.6188	2.9453
C	-5.4716	-4.1376	3.2930
H	-4.6521	-3.6208	2.7469
C	-6.8570	-3.5378	3.0613
C	-7.1199	-2.3818	2.3253
H	-6.3106	-1.8601	1.8299
C	-8.4291	-1.8752	2.2678
C	-9.4712	-2.5553	2.9471
H	-10.4835	-2.1803	2.9506
C	-9.2067	-3.7158	3.6877
H	-10.0027	-4.2094	4.2290
C	-7.9010	-4.1986	3.7547
