164

O	-7.3728	-3.6140	5.7653
H	-7.6887	-3.7340	4.8137
O	4.4853	-4.0510	7.8724
H	4.9600	-4.1775	6.9881
N	-6.6216	-2.0950	3.4198
N	4.6402	-2.1804	5.6560
C	-5.5033	-2.7395	3.5622
H	-4.8179	-2.8306	2.7278
C	-5.0827	-3.2954	4.8681
C	-5.9823	-3.6172	5.9203
C	-5.4749	-4.0124	7.1629
H	-6.1544	-4.2461	7.9728
C	-4.1012	-4.1586	7.3599
H	-3.7364	-4.4949	8.3235
C	-3.2053	-3.9049	6.3137
C	-3.7031	-3.4703	5.0759
H	-3.0079	-3.2449	4.2750
C	-1.7261	-4.1165	6.5084
H	-1.2035	-4.0843	5.5279
H	-1.5562	-5.1290	6.9369
C	3.4323	-2.6167	5.4603
H	2.9877	-2.5923	4.4734
C	2.6003	-3.0891	6.5876
C	3.1405	-3.6836	7.7574
C	2.2957	-3.9778	8.8338
H	2.7046	-4.4175	9.7343
C	0.9202	-3.7594	8.7408
H	0.2872	-4.0206	9.5793
C	0.3645	-3.2416	7.5635
C	1.2109	-2.9015	6.4974
H	0.7840	-2.4650	5.6008
C	-1.1253	-3.0535	7.4383
H	-1.6079	-3.1250	8.4374
H	-1.3350	-2.0366	7.0391
C	-7.9730	-0.2505	-0.1537
C	-8.8938	-0.7519	0.7655
H	-9.9566	-0.6876	0.5700
C	-8.4269	-1.3438	1.9472
H	-9.1403	-1.7373	2.6609
C	-7.0465	-1.4585	2.2043
C	-6.1183	-0.9233	1.2852
H	-5.0548	-0.9535	1.4776
C	-6.5833	-0.3234	0.1158
C	5.9554	-0.6682	2.4773
C	5.0421	-1.1350	3.4239
H	3.9855	-1.0777	3.2057
C	5.5203	-1.6563	4.6482
C	6.9037	-1.6576	4.9105
H	7.2719	-2.0419	5.8535
C	7.8210	-1.1952	3.9580
H	8.8830	-1.2202	4.1655
C	7.3487	-0.7106	2.7393
O	-4.8731	-4.2000	-7.2266
H	-5.1998	-4.8552	-7.9274
O	6.9364	-4.8280	-4.8910
H	7.5315	-5.4034	-5.4765
N	-4.9448	-2.5017	-5.1579
N	6.2059	-3.2449	-2.8763
C	-3.6497	-2.4220	-5.2436
H	-3.1015	-1.7238	-4.6258
C	-2.8734	-3.2712	-6.1769
C	-3.4796	-4.1337	-7.1190
C	-2.6715	-4.9229	-7.9555
H	-3.1214	-5.5875	-8.6834
C	-1.2802	-4.8664	-7.8592
H	-0.6774	-5.4860	-8.5119
C	-0.6691	-4.0163	-6.9283
C	-1.4707	-3.2178	-6.0986
H	-0.9990	-2.5636	-5.3741
C	0.8331	-3.9674	-6.8099
H	1.1352	-3.0915	-6.1944
H	1.2811	-3.8299	-7.8173
C	4.9783	-3.3433	-3.2925
H	4.1808	-2.8070	-2.7987
C	4.6169	-4.2062	-4.4433
C	5.5747	-4.9221	-5.1995
C	5.1509	-5.7324	-6.2664
H	5.8734	-6.2860	-6.8530
C	3.7963	-5.8364	-6.5870
H	3.4963	-6.4694	-7.4127
C	2.8394	-5.1287	-5.8479
C	3.2561	-4.3198	-4.7804
H	2.5115	-3.7848	-4.2022
C	1.3726	-5.2539	-6.1720
H	1.1999	-6.1038	-6.8679
H	0.8166	-5.4772	-5.2348
C	-7.5095	-0.3753	-2.5218
C	-8.0286	-1.0090	-3.6501
H	-9.0895	-0.9711	-3.8628
C	-7.1605	-1.7027	-4.5053
H	-7.5664	-2.1968	-5.3801
C	-5.7765	-1.7601	-4.2488
C	-5.2579	-1.1307	-3.0949
H	-4.2112	-1.1884	-2.8331
C	-6.1200	-0.4393	-2.2454
C	6.3852	-0.9763	0.1241
C	5.8390	-1.6910	-0.9415
H	4.7731	-1.6357	-1.1028
C	6.6888	-2.4654	-1.7668
C	8.0717	-2.4984	-1.4967
H	8.7259	-3.0905	-2.1235
C	8.6198	-1.7811	-0.4251
H	9.6837	-1.8206	-0.2292
C	7.7785	-1.0232	0.3860
O	-5.4440	7.9890	-1.7274
H	-5.7932	8.8840	-2.0511
O	6.4446	7.5298	0.1465
H	6.9885	8.3850	0.1154
N	-5.3592	5.3592	-1.2493
N	5.8843	4.9409	0.3997
C	-4.1636	5.5318	-0.7703
H	-3.6342	4.7124	-0.3045
C	-3.4775	6.8437	-0.8423
C	-4.1067	8.0174	-1.3194
C	-3.3795	9.2189	-1.3769
H	-3.8477	10.1243	-1.7391
C	-2.0449	9.2611	-0.9706
H	-1.5016	10.1972	-1.0283
C	-1.4132	8.1052	-0.4952
C	-2.1363	6.9054	-0.4266
H	-1.6456	6.0097	-0.0651
C	0.0334	8.1444	-0.0734
H	0.2867	7.2233	0.4950
H	0.1971	9.0062	0.6107
C	4.6468	5.2156	0.1122
H	3.8974	4.4382	0.0912
C	4.2174	6.5954	-0.2184
C	5.1016	7.7012	-0.2033
C	4.6205	8.9772	-0.5446
H	5.2857	9.8313	-0.5380
C	3.2827	9.1638	-0.8942
H	2.9378	10.1577	-1.1520
C	2.3981	8.0785	-0.9060
C	2.8722	6.8013	-0.5710
H	2.1876	5.9605	-0.5931
C	0.9545	8.2676	-1.2945
H	0.8060	9.2656	-1.7629
H	0.6844	7.5016	-2.0549
C	-7.6249	1.7722	-1.4244
C	-8.2415	3.0051	-1.6292
H	-9.3004	3.0618	-1.8464
C	-7.4715	4.1749	-1.5584
H	-7.9500	5.1319	-1.7243
C	-6.0919	4.1220	-1.2768
C	-5.4696	2.8673	-1.0817
H	-4.4076	2.7757	-0.9065
C	-6.2362	1.7047	-1.1486
C	6.2906	1.2526	1.0471
C	5.6676	2.4663	0.7524
H	4.6073	2.4635	0.5522
C	6.4407	3.6517	0.7166
C	7.8212	3.5865	0.9865
H	8.4174	4.4892	0.9603
C	8.4460	2.3686	1.2824
H	9.5095	2.3358	1.4807
C	7.6829	1.2026	1.3093
C	-8.3183	0.4112	-1.4888
H	-9.4071	0.4629	-1.7041
C	-5.6997	0.2851	-0.9704
H	-4.6102	0.2339	-0.7540
C	8.2188	-0.1979	1.5942
H	9.3115	-0.2360	1.7990
C	5.5951	-0.1078	1.1019
H	4.5022	-0.0706	0.8975
