164

O	-7.2501	-5.0785	4.7227
H	-7.5050	-5.0868	3.7456
O	4.4736	-4.7264	7.4935
H	5.0016	-4.6784	6.6320
N	-6.5397	-3.1710	2.6659
N	4.5499	-2.5463	5.5760
C	-5.3709	-3.7238	2.7869
H	-4.6395	-3.6289	1.9931
C	-4.9619	-4.4232	4.0258
C	-5.8756	-4.9763	4.9634
C	-5.3933	-5.5003	6.1678
H	-6.0852	-5.9111	6.8922
C	-4.0232	-5.5467	6.4288
H	-3.6746	-5.9850	7.3567
C	-3.1066	-5.0619	5.4873
C	-3.5837	-4.4991	4.2938
H	-2.8758	-4.0963	3.5781
C	-1.6251	-5.1628	5.7435
H	-1.0605	-4.9400	4.8124
H	-1.3761	-6.2070	6.0355
C	3.4028	-3.0585	5.2449
H	3.0073	-2.9314	4.2450
C	2.5675	-3.7647	6.2398
C	3.1061	-4.4713	7.3464
C	2.2428	-4.9958	8.3151
H	2.6486	-5.5226	9.1690
C	0.8587	-4.8935	8.1669
H	0.2143	-5.3313	8.9187
C	0.3128	-4.2628	7.0412
C	1.1725	-3.6945	6.0891
H	0.7490	-3.1730	5.2375
C	-1.1803	-4.1961	6.8497
H	-1.7021	-4.4567	7.7963
H	-1.4707	-3.1555	6.5847
C	-7.8905	-0.9571	-0.6915
C	-8.8009	-1.6697	0.0882
H	-9.8538	-1.6756	-0.1632
C	-8.3360	-2.3822	1.2022
H	-9.0409	-2.9395	1.8070
C	-6.9655	-2.4058	1.5275
C	-6.0512	-1.6592	0.7531
H	-5.0008	-1.6193	1.0063
C	-6.5155	-0.9405	-0.3474
C	5.8626	-0.4722	2.7307
C	4.9550	-1.1540	3.5427
H	3.9100	-1.1628	3.2683
C	5.4218	-1.8022	4.7094
C	6.7837	-1.7145	5.0560
H	7.1415	-2.1967	5.9570
C	7.6962	-1.0358	4.2377
H	8.7438	-0.9931	4.5065
C	7.2385	-0.4241	3.0717
O	-4.0654	-3.5309	-8.0384
H	-4.2899	-4.1042	-8.8434
O	7.6177	-3.4048	-5.0717
H	8.2956	-3.8315	-5.6934
N	-4.4088	-2.1664	-5.7604
N	6.6339	-2.2065	-2.9050
C	-3.1255	-1.9564	-5.7520
H	-2.6812	-1.3083	-5.0088
C	-2.2230	-2.5854	-6.7443
C	-2.6926	-3.3533	-7.8346
C	-1.7693	-3.9344	-8.7208
H	-2.1139	-4.5241	-9.5618
C	-0.3970	-3.7648	-8.5297
H	0.2962	-4.2245	-9.2235
C	0.0792	-3.0071	-7.4519
C	-0.8383	-2.4152	-6.5707
H	-0.4708	-1.8332	-5.7331
C	1.5613	-2.8382	-7.2330
H	1.7434	-2.0373	-6.4828
H	2.0425	-2.5146	-8.1808
C	5.4443	-2.3554	-3.4077
H	4.5738	-1.9725	-2.8950
C	5.2284	-3.0708	-4.6888
C	6.2892	-3.5777	-5.4759
C	6.0018	-4.2592	-6.6707
H	6.8041	-4.6525	-7.2822
C	4.6819	-4.4393	-7.0877
H	4.4880	-4.9700	-8.0114
C	3.6237	-3.9380	-6.3186
C	3.9041	-3.2586	-5.1239
H	3.0821	-2.8844	-4.5246
C	2.1946	-4.1488	-6.7492
H	2.1424	-4.9004	-7.5671
H	1.6181	-4.5566	-5.8897
C	-7.3005	-0.6920	-3.0195
C	-7.6972	-1.1994	-4.2561
H	-8.7447	-1.2285	-4.5281
C	-6.7229	-1.6781	-5.1436
H	-7.0335	-2.0746	-6.1030
C	-5.3544	-1.6450	-4.8107
C	-4.9591	-1.1456	-3.5494
H	-3.9261	-1.1444	-3.2326
C	-5.9269	-0.6677	-2.6674
C	6.4369	-0.3929	0.3895
C	6.0182	-0.9917	-0.7984
H	4.9614	-1.0117	-1.0173
C	6.9810	-1.5560	-1.6687
C	8.3451	-1.5008	-1.3190
H	9.0855	-1.9325	-1.9800
C	8.7652	-0.9002	-0.1248
H	9.8167	-0.8699	0.1305
C	7.8132	-0.3493	0.7299
O	-6.1239	7.6210	-0.9294
H	-6.5444	8.5177	-1.1457
O	5.6438	7.9880	1.6097
H	6.1003	8.8849	1.7335
N	-5.8002	4.9687	-0.8210
N	5.3335	5.3494	1.4609
C	-4.6529	5.1786	-0.2479
H	-4.0678	4.3523	0.1309
C	-4.0988	6.5444	-0.0913
C	-4.8180	7.7124	-0.4378
C	-4.2126	8.9711	-0.2799
H	-4.7505	9.8728	-0.5402
C	-2.9106	9.0761	0.2119
H	-2.4616	10.0565	0.3208
C	-2.1907	7.9262	0.5594
C	-2.7927	6.6679	0.4129
H	-2.2333	5.7780	0.6753
C	-0.7780	8.0362	1.0731
H	-0.4622	7.0693	1.5214
H	-0.7352	8.8004	1.8804
C	4.0904	5.5482	1.1371
H	3.4245	4.7167	0.9598
C	3.5421	6.9161	0.9770
C	4.3094	8.0844	1.2032
C	3.7205	9.3469	1.0147
H	4.2958	10.2484	1.1831
C	2.3897	9.4587	0.6108
H	1.9602	10.4436	0.4738
C	1.6197	8.3101	0.3908
C	2.2021	7.0467	0.5725
H	1.6069	6.1588	0.3892
C	0.1854	8.4203	-0.0579
H	-0.0389	9.4581	-0.3900
H	0.0312	7.7519	-0.9339
C	-7.6842	1.2526	-1.6410
C	-8.4102	2.4403	-1.7092
H	-9.4574	2.4305	-1.9828
C	-7.7655	3.6530	-1.4262
H	-8.3286	4.5759	-1.4861
C	-6.4031	3.6867	-1.0682
C	-5.6688	2.4794	-1.0122
H	-4.6130	2.4612	-0.7848
C	-6.3111	1.2735	-1.2900
C	6.0743	1.6593	1.6085
C	5.3483	2.8406	1.4483
H	4.3048	2.7696	1.1829
C	5.9997	4.0845	1.6283
C	7.3648	4.1077	1.9731
H	7.8683	5.0556	2.1117
C	8.0929	2.9224	2.1340
H	9.1433	2.9588	2.3926
C	7.4499	1.6998	1.9486
C	-8.2340	-0.1423	-1.9395
H	-9.3105	-0.1601	-2.2139
C	-5.6447	-0.1014	-1.2794
H	-4.5675	-0.0833	-1.0039
C	8.1085	0.3279	2.0673
H	9.1881	0.3610	2.3335
C	5.5165	0.2474	1.4276
H	4.4368	0.2134	1.1617
