316

O	1.2124	-6.4399	-2.1634
O	5.1630	0.1416	4.6678
N	6.1454	-3.4684	6.4233
N	2.7306	-9.0975	0.6111
N	7.7993	3.3087	4.3907
N	1.5612	-6.9770	-6.2424
C	2.9078	-8.2478	6.3193
H	3.2065	-9.0997	6.9685
C	2.1920	-6.2015	4.7580
H	1.8944	-5.3507	4.1081
C	3.4421	-5.9429	5.5938
C	3.8242	-7.0272	6.4231
C	4.9566	-6.9264	7.2306
H	5.2579	-7.7536	7.8608
C	5.7038	-5.7393	7.2155
H	6.5849	-5.6633	7.8412
C	5.3246	-4.6502	6.4079
C	4.1868	-4.7650	5.5763
H	3.8883	-3.9745	4.9040
C	2.5031	-7.4885	3.9989
C	2.8824	-8.5762	4.8250
C	3.2039	-9.8085	4.2573
H	3.5014	-10.6406	4.8827
C	3.1413	-9.9575	2.8639
H	3.3954	-10.9132	2.4238
C	2.7520	-8.8872	2.0346
C	2.4444	-7.6347	2.6140
H	2.1897	-6.7735	2.0147
C	1.1330	-6.6111	5.7777
C	1.5112	-7.6954	6.6080
C	0.6311	-8.1785	7.5755
H	0.9106	-9.0118	8.2073
C	-0.6273	-7.5750	7.7172
H	-1.3126	-7.9534	8.4654
C	-1.0086	-6.4870	6.9066
C	-0.1181	-6.0131	5.9170
H	-0.3881	-5.2149	5.2405
C	0.4683	-3.8023	-7.9314
C	0.4808	-4.2159	-9.2866
C	0.8453	-5.5214	-9.6174
H	0.8641	-5.8409	-10.6509
C	1.1922	-6.4146	-8.5936
H	1.4789	-7.4272	-8.8520
C	1.1696	-6.0181	-7.2415
C	0.8159	-4.6890	-6.9138
H	0.8337	-4.3272	-5.8968
C	2.1230	-8.3424	-0.2561
H	1.5319	-7.5003	0.0711
C	2.2216	-8.6064	-1.7104
C	1.7575	-7.6457	-2.6282
C	2.1858	-5.4084	-2.0068
H	2.9583	-5.7055	-1.2656
H	2.6711	-5.1744	-2.9784
H	1.6821	-4.4918	-1.6376
C	1.8299	-7.8963	-4.0126
C	1.3196	-6.8850	-4.9682
H	0.7399	-6.0603	-4.5801
C	2.3950	-9.0988	-4.4699
H	2.4389	-9.2625	-5.5360
C	2.8827	-10.0724	-3.5688
C	2.7842	-9.8014	-2.1877
H	3.1417	-10.5305	-1.4729
C	3.5061	-11.4061	-4.0380
C	3.5395	-11.5567	-5.5786
H	3.9968	-12.5265	-5.8703
H	2.5124	-11.5333	-6.0016
H	4.1492	-10.7503	-6.0416
C	4.9596	-11.5025	-3.5273
H	5.5536	-10.6361	-3.8895
H	5.0050	-11.5162	-2.4180
H	5.4444	-12.4347	-3.8898
C	2.6846	-12.5861	-3.4729
H	3.0863	-13.5568	-3.8361
H	2.7126	-12.6113	-2.3635
H	1.6230	-12.5054	-3.7936
C	5.7893	-2.2927	5.9961
H	4.7867	-2.1264	5.6291
C	6.7367	-1.1545	5.9956
C	6.3969	0.0369	5.3276
C	5.1901	-0.2820	3.3012
H	6.1944	-0.6313	2.9702
H	4.4659	-1.1109	3.1648
H	4.8825	0.5659	2.6541
C	7.2920	1.1222	5.3144
C	6.9258	2.3669	4.5997
H	5.9103	2.4776	4.2484
C	8.5314	1.0053	5.9675
H	9.1983	1.8531	5.9430
C	8.8980	-0.1810	6.6436
C	7.9791	-1.2526	6.6408
H	8.2305	-2.1728	7.1504
C	10.2487	-0.3419	7.3748
C	9.9938	-0.6289	8.8716
H	9.4512	-1.5861	9.0183
H	10.9527	-0.7023	9.4284
H	9.3891	0.1875	9.3236
C	11.1446	0.9175	7.2869
H	12.1041	0.7581	7.8259
H	11.3927	1.1545	6.2295
H	10.6448	1.7938	7.7540
C	11.0344	-1.5174	6.7545
H	11.1889	-1.3474	5.6664
H	12.0317	-1.6241	7.2360
H	10.5001	-2.4816	6.8835
O	-5.3555	0.5119	-4.3379
O	-3.7044	-2.4629	5.3170
N	-7.6242	-1.1864	5.5969
N	-9.0381	1.3710	-2.6780
N	-2.3231	-5.9306	7.0862
N	-4.8936	-1.2504	-8.0437
C	-9.9264	3.2517	2.7094
H	-10.9494	3.5858	2.9873
C	-7.4689	2.4458	2.0391
H	-6.4459	2.1105	1.7605
C	-8.0980	1.6510	3.1798
C	-9.4019	2.0766	3.5372
C	-10.0961	1.4281	4.5587
H	-11.0942	1.7441	4.8308
C	-9.4856	0.3572	5.2270
H	-10.0263	-0.1487	6.0174
C	-8.1837	-0.0657	4.8898
C	-7.4928	0.5838	3.8408
H	-6.5149	0.2620	3.5159
C	-8.4872	2.3544	0.9069
C	-9.7923	2.7818	1.2595
C	-10.8217	2.7373	0.3188
H	-11.8218	3.0554	0.5840
C	-10.5465	2.2726	-0.9757
H	-11.3472	2.2349	-1.7042
C	-9.2492	1.8588	-1.3408
C	-8.2148	1.8882	-0.3778
H	-7.2192	1.5333	-0.5985
C	-7.5470	3.8979	2.5015
C	-8.8502	4.3274	2.8575
C	-9.0638	5.6363	3.2880
H	-10.0571	5.9728	3.5540
C	-7.9744	6.5170	3.3670
H	-8.1426	7.5348	3.6959
C	-6.6726	6.0970	3.0289
C	-6.4654	4.7738	2.5766
H	-5.4929	4.4240	2.2602
C	-1.2831	-2.2197	-8.4280
C	-1.2717	-2.6308	-9.7852
C	-2.4413	-2.5792	-10.5420
H	-2.4415	-2.8980	-11.5761
C	-3.6234	-2.1145	-9.9457
H	-4.5322	-2.0790	-10.5333
C	-3.6425	-1.6911	-8.6018
C	-2.4578	-1.7618	-7.8348
H	-2.4375	-1.4944	-6.7881
C	-7.8838	1.2434	-3.2621
H	-6.9800	1.5591	-2.7613
C	-7.7669	0.6633	-4.6201
C	-6.4985	0.3162	-5.1250
C	-5.0310	-0.6188	-3.5296
H	-4.8231	-1.5090	-4.1624
H	-4.1208	-0.3895	-2.9386
H	-5.8582	-0.8475	-2.8228
C	-6.3758	-0.2168	-6.4220
C	-5.0335	-0.5614	-6.9500
H	-4.1665	-0.2285	-6.3993
C	-7.5299	-0.4275	-7.1974
H	-7.4054	-0.8394	-8.1863
C	-8.8151	-0.1034	-6.7066
C	-8.9076	0.4439	-5.4095
H	-9.8758	0.7097	-5.0089
C	-10.1024	-0.3210	-7.5313
C	-9.8362	-0.9264	-8.9315
H	-9.3505	-1.9223	-8.8462
H	-10.7891	-1.0669	-9.4871
H	-9.1942	-0.2531	-9.5388
C	-11.0415	-1.2868	-6.7762
H	-11.9570	-1.4926	-7.3712
H	-10.5255	-2.2520	-6.5819
H	-11.3668	-0.8650	-5.8026
C	-10.8182	1.0329	-7.7379
H	-10.1391	1.7550	-8.2394
H	-11.7246	0.9088	-8.3690
H	-11.1458	1.4739	-6.7733
C	-6.3642	-1.5056	5.6322
H	-5.6294	-0.8835	5.1427
C	-5.8994	-2.7247	6.3338
C	-4.5760	-3.1707	6.1574
C	-3.7367	-2.9172	3.9643
H	-4.7534	-2.7945	3.5321
H	-3.0257	-2.3133	3.3642
H	-3.4294	-3.9845	3.9005
C	-4.1203	-4.3194	6.8334
C	-2.7194	-4.7699	6.6548
H	-2.0290	-4.1089	6.1500
C	-5.0048	-5.0310	7.6633
H	-4.6286	-5.9083	8.1663
C	-6.3418	-4.6116	7.8445
C	-6.7672	-3.4493	7.1657
H	-7.7822	-3.0996	7.2906
C	-7.3364	-5.3663	8.7534
C	-7.8228	-4.4242	9.8779
H	-6.9582	-4.0426	10.4619
H	-8.3810	-3.5551	9.4719
H	-8.5058	-4.9610	10.5729
C	-6.7218	-6.6179	9.4255
H	-6.3815	-7.3507	8.6624
H	-5.8659	-6.3387	10.0770
H	-7.4726	-7.1301	10.0665
C	-8.5479	-5.8334	7.9163
H	-9.1107	-4.9744	7.4956
H	-8.2092	-6.4751	7.0745
H	-9.2567	-6.4195	8.5405
O	4.2382	2.4847	-4.8450
O	-1.5859	6.1824	2.7129
N	1.3558	9.0795	2.5602
N	6.3570	5.9048	-3.9099
N	-5.6036	7.0563	3.1089
N	3.5331	1.2440	-8.7200
C	6.9298	8.1545	1.3766
H	7.6434	8.9950	1.5157
C	5.2146	6.1338	1.0415
H	4.5002	5.2929	0.9014
C	4.5720	7.4226	1.5461
C	5.4803	8.4959	1.7249
C	5.0222	9.7349	2.1721
H	5.7096	10.5603	2.3040
C	3.6560	9.9012	2.4457
H	3.3007	10.8637	2.7897
C	2.7464	8.8369	2.2861
C	3.2138	7.5888	1.8144
H	2.5452	6.7610	1.6291
C	5.9479	6.5492	-0.2308
C	6.8583	7.6204	-0.0556
C	7.5861	8.1069	-1.1414
H	8.2785	8.9295	-1.0160
C	7.4066	7.5201	-2.4030
H	7.9688	7.9009	-3.2472
C	6.5134	6.4456	-2.5855
C	5.7662	5.9697	-1.4852
H	5.0329	5.1829	-1.5885
C	6.3280	5.8484	2.0455
C	7.2394	6.9199	2.2248
C	8.3111	6.7876	3.1067
H	9.0143	7.5994	3.2429
C	8.4715	5.5871	3.8135
H	9.3068	5.4842	4.4962
C	7.5639	4.5220	3.6542
C	6.4899	4.6542	2.7451
H	5.7992	3.8456	2.5548
C	1.0283	-1.5562	-8.6074
C	1.0437	-1.9671	-9.9645
C	1.8711	-1.3222	-10.8823
H	1.8820	-1.6272	-11.9214
C	2.6884	-0.2691	-10.4463
H	3.3269	0.2341	-11.1608
C	2.6911	0.1393	-9.0977
C	1.8367	-0.5067	-8.1746
H	1.7703	-0.1953	-7.1420
C	5.8248	4.7529	-4.1984
H	5.4992	4.0890	-3.4112
C	5.6459	4.3174	-5.6030
C	4.8582	3.1871	-5.8888
C	2.9297	2.9678	-4.5428
H	2.9692	4.0312	-4.2205
H	2.2603	2.8692	-5.4241
H	2.5068	2.3666	-3.7130
C	4.6987	2.7532	-7.2196
C	3.8820	1.5500	-7.5054
H	3.5763	0.9291	-6.6769
C	5.3076	3.4745	-8.2608
H	5.1652	3.1206	-9.2698
C	6.0891	4.6229	-8.0004
C	6.2454	5.0259	-6.6571
H	6.8439	5.8953	-6.4255
C	6.7743	5.4377	-9.1205
C	6.5094	4.8703	-10.5361
H	5.4228	4.8743	-10.7700
H	7.0170	5.4884	-11.3087
H	6.9039	3.8347	-10.6288
C	6.2501	6.8901	-9.0952
H	6.5056	7.4008	-8.1432
H	6.6954	7.4854	-9.9208
H	5.1447	6.9037	-9.2118
C	8.3024	5.4392	-8.8970
H	8.5763	5.9424	-7.9458
H	8.6890	4.3981	-8.8657
H	8.8208	5.9796	-9.7179
C	0.4517	8.1656	2.7564
H	0.7252	7.1209	2.7699
C	-0.9718	8.5226	2.9621
C	-1.9557	7.5167	2.9367
C	-1.5895	5.8228	1.3317
H	-2.6060	5.9403	0.8969
H	-0.8653	6.4440	0.7619
H	-1.2898	4.7590	1.2363
C	-3.3084	7.8454	3.1463
C	-4.3338	6.7752	3.1338
H	-4.0031	5.7474	3.1438
C	-3.6719	9.1875	3.3531
H	-4.7157	9.4100	3.5090
C	-2.7045	10.2175	3.3678
C	-1.3538	9.8575	3.1698
H	-0.5900	10.6222	3.1839
C	-3.0675	11.7010	3.5954
C	-2.3475	12.2204	4.8594
H	-1.2441	12.1917	4.7445
H	-2.6318	13.2742	5.0708
H	-2.6228	11.6019	5.7419
C	-4.5854	11.9348	3.7927
H	-4.8014	13.0135	3.9492
H	-5.1570	11.6072	2.8972
H	-4.9578	11.3888	4.6877
C	-2.6235	12.5337	2.3736
H	-1.5224	12.5080	2.2378
H	-3.0988	12.1448	1.4475
H	-2.9162	13.5993	2.4946
C	0.0897	-3.1203	-10.2804
H	0.1005	-3.4440	-11.3431
C	0.0654	-2.3439	-7.7237
H	0.0556	-2.0208	-6.6597
