648

C	-4.5517	15.9463	-1.5593
C	-4.2922	17.2717	-1.9626
C	-5.2773	18.2473	-1.7331
H	-5.1055	19.2752	-2.0276
C	-6.4894	17.9207	-1.1148
H	-7.2209	18.7042	-0.9618
C	-6.7641	16.6057	-0.7024
C	-5.7842	15.6153	-0.9172
C	-3.6019	14.7508	-1.7348
H	-2.6389	14.9699	-2.2402
C	-2.9934	17.6730	-2.6202
H	-3.1059	18.6544	-3.1309
H	-2.7162	16.9411	-3.4081
C	-1.8725	17.8007	-1.5912
H	-2.1266	18.5838	-0.8453
H	-0.9313	18.0903	-2.1023
H	-1.7052	16.8396	-1.0613
C	-8.0894	16.2992	-0.0474
H	-8.5706	17.2351	0.3117
H	-7.9382	15.6625	0.8501
C	-9.0445	15.6210	-1.0269
H	-8.6053	14.6866	-1.4329
H	-9.2757	16.3066	-1.8697
H	-9.9917	15.3670	-0.5056
C	-5.8986	14.1363	-0.5165
H	-6.8397	13.8478	-0.0063
C	-14.9426	3.7913	-6.4869
C	-16.2268	4.3658	-6.3945
C	-17.1001	4.2358	-7.4876
H	-18.0944	4.6618	-7.4441
C	-16.7171	3.5422	-8.6416
H	-17.4284	3.4534	-9.4533
C	-15.4462	2.9526	-8.7467
C	-14.5522	3.0836	-7.6648
C	-13.8546	3.8428	-5.4040
H	-14.1230	4.3861	-4.4751
C	-16.6939	5.0960	-5.1582
H	-17.5716	5.7363	-5.3958
H	-15.9009	5.7784	-4.7871
C	-17.1053	4.1101	-4.0676
H	-16.2596	3.4498	-3.7876
H	-17.9515	3.4820	-4.4218
H	-17.4318	4.6681	-3.1653
C	-15.0816	2.1982	-10.0021
H	-14.0625	2.4822	-10.3412
H	-15.7726	2.4691	-10.8307
C	-15.1709	0.6897	-9.7822
H	-14.4817	0.3618	-8.9766
H	-14.8951	0.1623	-10.7192
H	-16.2088	0.4061	-9.5062
C	-13.1245	2.5206	-7.6073
H	-12.7871	1.9678	-8.5075
C	-13.7077	-4.7097	7.8189
C	-14.5122	-5.6972	8.4229
C	-15.7601	-5.3190	8.9459
H	-16.4018	-6.0560	9.4137
C	-16.2048	-3.9949	8.8702
H	-17.1710	-3.7465	9.2933
C	-15.4205	-2.9983	8.2666
C	-14.1679	-3.3608	7.7289
C	-12.3104	-4.9320	7.2188
H	-11.9171	-5.9669	7.2821
C	-14.0800	-7.1403	8.5149
H	-14.6769	-7.6740	9.2859
H	-13.0207	-7.2090	8.8395
C	-14.2770	-7.8565	7.1798
H	-13.9617	-8.9167	7.2784
H	-13.6732	-7.3800	6.3807
H	-15.3490	-7.8307	6.8878
C	-15.9380	-1.5806	8.2200
H	-17.0414	-1.5684	8.3580
H	-15.7456	-1.1284	7.2253
C	-15.3124	-0.7292	9.3230
H	-15.6991	0.3090	9.2531
H	-14.2072	-0.7033	9.2262
H	-15.5805	-1.1388	10.3202
C	-13.1812	-2.4132	7.0306
H	-13.5101	-1.3594	6.9341
C	-4.1186	8.3349	14.1429
C	-3.8372	8.8204	15.4361
C	-4.8325	9.5476	16.1099
H	-4.6463	9.9353	17.1041
C	-6.0721	9.8033	15.5124
H	-6.8046	10.3798	16.0637
C	-6.3625	9.3436	14.2176
C	-5.3820	8.5983	13.5321
C	-3.1647	7.5092	13.2658
H	-2.1743	7.2837	13.7112
C	-2.5059	8.5898	16.1110
H	-2.1892	7.5334	15.9909
H	-2.5918	8.7685	17.2052
C	-1.4391	9.5330	15.5596
H	-1.2963	9.3824	14.4705
H	-0.4729	9.3407	16.0721
H	-1.7324	10.5899	15.7426
C	-7.6996	9.6717	13.5991
H	-8.4249	9.9758	14.3847
H	-8.1307	8.7751	13.1069
C	-7.5722	10.8206	12.6009
H	-6.8713	10.5595	11.7813
H	-7.2016	11.7326	13.1148
H	-8.5668	11.0407	12.1592
C	-5.5273	8.0038	12.1225
H	-6.4982	8.1883	11.6197
C	-0.2539	7.8849	-14.7615
C	0.1130	8.9381	-15.6235
C	-0.3417	8.9065	-16.9523
H	-0.0740	9.6994	-17.6384
C	-1.1583	7.8672	-17.4135
H	-1.4980	7.8919	-18.4415
C	-1.5471	6.8182	-16.5649
C	-1.0852	6.8222	-15.2344
C	0.1683	7.7357	-13.2913
H	0.8158	8.5435	-12.8917
C	0.9695	10.0937	-15.1629
H	1.3946	10.6334	-16.0380
H	1.8352	9.7246	-14.5743
C	0.1531	11.0907	-14.3437
H	-0.6652	11.5138	-14.9651
H	0.8094	11.9220	-14.0093
H	-0.2879	10.6053	-13.4488
C	-2.4457	5.7285	-17.1014
H	-2.0777	4.7310	-16.7835
H	-2.4297	5.7270	-18.2134
C	-3.8891	5.9336	-16.6477
H	-4.2705	6.9097	-17.0166
H	-3.9666	5.9115	-15.5407
H	-4.5271	5.1250	-17.0633
C	-1.3825	5.7492	-14.1770
H	-2.0233	4.9074	-14.5106
C	9.3931	12.5974	5.3177
C	10.0862	13.8070	5.1151
C	10.8278	14.3419	6.1816
H	11.3651	15.2740	6.0578
C	10.8830	13.6939	7.4216
H	11.4710	14.1407	8.2128
C	10.1981	12.4868	7.6422
C	9.4404	11.9409	6.5869
C	8.5425	11.8633	4.2702
H	8.4912	12.3404	3.2703
C	10.0462	14.5461	3.7985
H	10.1804	13.8398	2.9525
H	10.8866	15.2708	3.7364
C	8.7391	15.3192	3.6434
H	8.7344	15.8503	2.6694
H	8.6425	16.0703	4.4564
H	7.8642	14.6371	3.6785
C	10.2912	11.8203	8.9954
H	9.2875	11.4892	9.3334
H	10.6543	12.5447	9.7568
C	11.2611	10.6407	8.9656
H	12.2735	10.9833	8.6629
H	10.9168	9.8594	8.2573
H	11.3282	10.1921	9.9797
C	8.6180	10.6458	6.6469
H	8.6248	10.1157	7.6209
C	-0.8926	11.1009	7.0327
C	-1.6243	11.6118	5.9480
H	-2.7081	11.5803	5.9646
C	-0.9577	12.1500	4.8358
C	0.4452	12.1817	4.8166
H	0.9632	12.5914	3.9558
C	1.1815	11.6697	5.8931
C	0.5094	11.1344	7.0016
H	1.0773	10.7330	7.8342
B	-1.6314	10.4674	8.2604
O	-0.9180	9.8875	9.4020
C	-1.9848	9.4140	10.1462
C	-1.8845	8.7267	11.3591
H	-0.9207	8.5284	11.8104
C	-3.0732	8.2930	11.9610
C	-4.3358	8.5558	11.3493
C	-4.4090	9.2471	10.1315
H	-5.3597	9.4419	9.6519
C	-3.2084	9.6653	9.5498
O	-3.0889	10.3351	8.3419
B	-1.7653	12.6839	3.6050
O	-3.2283	12.6446	3.5244
C	-3.4192	13.1565	2.2506
C	-4.6556	13.3399	1.6248
H	-5.5779	13.0815	2.1265
C	-4.6556	13.8664	0.3247
C	-3.4291	14.1936	-0.3262
C	-2.2015	13.9946	0.3204
H	-1.2642	14.2324	-0.1652
C	-2.2289	13.4751	1.6177
O	-1.1186	13.2102	2.3994
B	2.7462	11.6622	5.8429
O	3.5102	12.1816	4.7054
C	4.7962	11.8678	5.1086
C	5.9602	12.1184	4.3751
H	5.9177	12.6070	3.4104
C	7.1788	11.7035	4.9293
C	7.2182	11.0531	6.1987
C	6.0363	10.8120	6.9127
H	6.0506	10.3068	7.8695
C	4.8335	11.2346	6.3388
O	3.5756	11.0585	6.8890
C	-7.6886	7.7301	-7.3317
C	-7.4304	8.7238	-6.3779
H	-8.1311	8.8865	-5.5657
C	-6.2642	9.4994	-6.4604
C	-5.3577	9.2796	-7.5096
H	-4.4526	9.8745	-7.5741
C	-5.6099	8.2843	-8.4668
C	-6.7773	7.5136	-8.3740
H	-6.9715	6.7385	-9.1079
B	-8.9712	6.8423	-7.2169
O	-9.2672	5.7485	-8.1453
C	-10.4145	5.2360	-7.5644
C	-11.1272	4.1254	-8.0237
H	-10.8127	3.5870	-8.9082
C	-12.2478	3.7238	-7.2855
C	-12.6370	4.4309	-6.1094
C	-11.9031	5.5406	-5.6681
H	-12.1776	6.0757	-4.7683
C	-10.7894	5.9225	-6.4228
O	-9.9330	6.9667	-6.1187
B	-5.9696	10.5833	-5.3693
O	-6.8640	10.8357	-4.2355
C	-6.1423	11.8068	-3.5619
C	-6.5264	12.4176	-2.3634
H	-7.4571	12.1585	-1.8783
C	-5.6587	13.3728	-1.8144
C	-4.4330	13.7005	-2.4643
C	-4.0700	13.0721	-3.6647
H	-3.1406	13.3074	-4.1638
C	-4.9514	12.1234	-4.1917
O	-4.7508	11.3974	-5.3544
B	-4.5848	8.0089	-9.6178
O	-3.3323	8.7544	-9.7739
C	-2.7837	8.0901	-10.8597
C	-1.5485	8.3764	-11.4472
H	-0.9261	9.1791	-11.0729
C	-1.1431	7.5832	-12.5290
C	-1.9712	6.5219	-13.0024
C	-3.2065	6.2564	-12.3976
H	-3.8423	5.4515	-12.7449
C	-3.5888	7.0630	-11.3215
O	-4.7613	6.9325	-10.5972
C	-6.8568	-1.3519	11.0069
C	-6.6678	0.0145	11.2556
H	-7.4193	0.7299	10.9376
C	-5.5050	0.4636	11.9001
C	-4.5305	-0.4644	12.3006
H	-3.6276	-0.1208	12.7926
C	-4.7162	-1.8349	12.0589
C	-5.8818	-2.2731	11.4144
H	-6.0256	-3.3306	11.2187
B	-8.1359	-1.8452	10.2496
O	-8.3672	-3.2519	9.9138
C	-9.5506	-3.1443	9.2031
C	-10.2416	-4.2079	8.6151
H	-9.8740	-5.2220	8.6933
C	-11.4224	-3.9110	7.9222
C	-11.8868	-2.5662	7.8200
C	-11.1735	-1.5152	8.4143
H	-11.5135	-0.4913	8.3393
C	-10.0019	-1.8398	9.1057
O	-9.1675	-0.9345	9.7432
B	-5.2915	1.9956	12.1444
O	-6.2574	3.0111	11.7143
C	-5.5877	4.1641	12.0873
C	-6.0469	5.4693	11.8818
H	-7.0005	5.6572	11.4073
C	-5.2180	6.5214	12.2957
C	-3.9563	6.2572	12.9058
C	-3.5189	4.9385	13.0999
H	-2.5581	4.7243	13.5479
C	-4.3639	3.9064	12.6770
O	-4.0828	2.5510	12.7614
C	-11.4301	-5.1969	-2.2689
C	-11.6142	-5.1574	-0.8802
H	-11.3759	-6.0277	-0.2790
C	-12.0966	-3.9943	-0.2632
C	-12.4006	-2.8688	-1.0445
H	-12.7726	-1.9673	-0.5691
C	-12.2163	-2.8994	-2.4346
C	-11.7336	-4.0669	-3.0435
H	-11.5860	-4.0937	-4.1182
B	-12.2762	-3.9465	1.2885
O	-11.9420	-5.0706	2.1696
C	-12.2356	-4.5125	3.4021
C	-12.0872	-5.1495	4.6387
H	-11.7190	-6.1654	4.7025
C	-12.4230	-4.4201	5.7878
C	-12.8910	-3.0770	5.6871
C	-13.0284	-2.4613	4.4365
H	-13.3740	-1.4398	4.3456
C	-12.6927	-3.2097	3.3054
O	-12.7533	-2.7574	1.9982
B	-12.5316	-1.6323	-3.2994
O	-13.0116	-0.3724	-2.7257
C	-13.0903	0.4053	-3.8694
C	-13.4872	1.7462	-3.9130
H	-13.7750	2.2717	-3.0116
C	-13.4862	2.3834	-5.1612
C	-13.0958	1.6770	-6.3378
C	-12.7036	0.3336	-6.2671
H	-12.3967	-0.2095	-7.1513
C	-12.7098	-0.2785	-5.0105
O	-12.3355	-1.5869	-4.7518
B	3.6180	2.8779	-12.4730
O	2.3375	2.4942	-13.0735
C	1.7334	3.7361	-13.1816
C	0.4486	3.9728	-13.6761
H	-0.1721	3.1585	-14.0281
C	-0.0093	5.2977	-13.6911
C	0.8176	6.3584	-13.2172
C	2.1020	6.0939	-12.7197
H	2.7347	6.8882	-12.3461
C	2.5342	4.7645	-12.7147
O	3.7574	4.3194	-12.2422
B	10.8563	6.4765	2.9434
O	10.5980	6.5754	4.3823
C	10.0934	7.8630	4.4539
C	9.6523	8.4966	5.6190
H	9.6895	7.9934	6.5764
C	9.1565	9.8013	5.4985
C	9.1150	10.4507	4.2291
C	9.5581	9.7911	3.0751
H	9.5197	10.2674	2.1042
C	10.0456	8.4890	3.2202
O	10.5097	7.6866	2.1927
C	4.5495	-15.9463	1.5559
C	4.2913	-17.2702	1.9653
C	5.2769	-18.2455	1.7395
H	5.1064	-19.2728	2.0380
C	6.4898	-17.9208	1.1211
H	7.2226	-18.7036	0.9721
C	6.7639	-16.6071	0.7039
C	5.7837	-15.6167	0.9142
C	3.5997	-14.7519	1.7278
H	2.6366	-14.9700	2.2323
C	2.9928	-17.6691	2.6248
H	2.7158	-16.9338	3.4090
H	3.1071	-18.6474	3.1411
C	1.8712	-17.8026	1.5976
H	1.6889	-16.8389	1.0787
H	0.9356	-18.1118	2.1092
H	2.1350	-18.5744	0.8435
C	8.0918	-16.2993	0.0523
H	7.9426	-15.6682	-0.8488
H	8.5758	-17.2362	-0.2993
C	9.0426	-15.6143	1.0314
H	10.0038	-15.3949	0.5221
H	9.2438	-16.2801	1.8969
H	8.6144	-14.6600	1.4031
C	5.8982	-14.1389	0.5121
H	6.8397	-13.8490	0.0023
C	14.9414	-3.7876	6.4955
C	16.2253	-4.3610	6.3977
C	17.0969	-4.2419	7.4924
H	18.0888	-4.6735	7.4491
C	16.7166	-3.5527	8.6499
H	17.4273	-3.4719	9.4631
C	15.4500	-2.9544	8.7551
C	14.5528	-3.0825	7.6747
C	13.8514	-3.8390	5.4140
H	14.1185	-4.3818	4.4847
C	16.6927	-5.0811	5.1560
H	15.9036	-5.7694	4.7851
H	17.5765	-5.7163	5.3860
C	17.0922	-4.0899	4.0649
H	17.4417	-4.6448	3.1690
H	17.9181	-3.4395	4.4242
H	16.2325	-3.4528	3.7715
C	15.0954	-2.1908	10.0086
H	15.7856	-2.4643	10.8364
H	14.0759	-2.4629	10.3521
C	15.1983	-0.6846	9.7828
H	14.5071	-0.3531	8.9803
H	16.2370	-0.4128	9.4993
H	14.9350	-0.1502	10.7197
C	13.1244	-2.5176	7.6194
H	12.7898	-1.9646	8.5209
C	13.7093	4.7037	-7.8264
C	14.5110	5.6942	-8.4277
C	15.7649	5.3221	-8.9416
H	16.4075	6.0629	-9.4028
C	16.2154	3.9997	-8.8622
H	17.1864	3.7578	-9.2766
C	15.4296	2.9979	-8.2678
C	14.1730	3.3554	-7.7371
C	12.3147	4.9239	-7.2202
H	11.9195	5.9580	-7.2812
C	14.0729	7.1356	-8.5234
H	13.0147	7.1983	-8.8520
H	14.6690	7.6702	-9.2935
C	14.2616	7.8557	-7.1898
H	13.9360	8.9133	-7.2897
H	15.3334	7.8398	-6.8969
H	13.6616	7.3755	-6.3898
C	15.9493	1.5815	-8.2245
H	15.7812	1.1363	-7.2221
H	17.0490	1.5678	-8.3904
C	15.2971	0.7227	-9.3056
H	15.5308	1.1327	-10.3120
H	14.1960	0.6885	-9.1771
H	15.6926	-0.3134	-9.2459
C	13.1881	2.4052	-7.0375
H	13.5203	1.3519	-6.9429
C	4.1152	-8.3290	-14.1468
C	3.8331	-8.8181	-15.4376
C	4.8269	-9.5482	-16.1105
H	4.6395	-9.9376	-17.1033
C	6.0657	-9.8043	-15.5134
H	6.7978	-10.3833	-16.0641
C	6.3580	-9.3436	-14.2186
C	5.3798	-8.5929	-13.5356
C	3.1621	-7.5028	-13.2692
H	2.1725	-7.2769	-13.7143
C	2.5010	-8.5899	-16.1112
H	2.5869	-8.7655	-17.2059
H	2.1815	-7.5338	-15.9901
C	1.4355	-9.5360	-15.5620
H	1.2842	-9.3782	-14.4749
H	1.7361	-10.5917	-15.7363
H	0.4720	-9.3522	-16.0839
C	7.6930	-9.6795	-13.5981
H	8.1310	-8.7816	-13.1139
H	8.4149	-9.9952	-14.3830
C	7.5581	-10.8187	-12.5913
H	8.5500	-11.0402	-12.1454
H	7.1845	-11.7332	-13.0992
H	6.8558	-10.5493	-11.7749
C	5.5270	-7.9963	-12.1270
H	6.4979	-8.1808	-11.6242
C	0.2544	-7.8815	14.7642
C	-0.1120	-8.9334	15.6267
C	0.3468	-8.9043	16.9544
H	0.0853	-9.7020	17.6397
C	1.1585	-7.8618	17.4176
H	1.4981	-7.8865	18.4456
C	1.5444	-6.8119	16.5691
C	1.0861	-6.8185	15.2361
C	-0.1692	-7.7331	13.2954
H	-0.8183	-8.5393	12.8976
C	-0.9717	-10.0862	15.1674
H	-1.8363	-9.7131	14.5801
H	-1.3982	-10.6231	16.0426
C	-0.1592	-11.0848	14.3476
H	0.6654	-11.5028	14.9637
H	0.2740	-10.6022	13.4468
H	-0.8159	-11.9176	14.0203
C	2.4419	-5.7216	17.1052
H	2.4274	-5.7206	18.2167
H	2.0705	-4.7236	16.7883
C	3.8838	-5.9263	16.6488
H	4.5217	-5.1143	17.0564
H	3.9568	-5.9117	15.5408
H	4.2665	-6.8996	17.0222
C	1.3862	-5.7486	14.1760
H	2.0299	-4.9089	14.5082
C	-9.3873	-12.5991	-5.3282
C	-10.0852	-13.8055	-5.1213
C	-10.8337	-14.3371	-6.1845
H	-11.3806	-15.2639	-6.0558
C	-10.8897	-13.6917	-7.4253
H	-11.4854	-14.1344	-8.2144
C	-10.2002	-12.4880	-7.6492
C	-9.4382	-11.9432	-6.5967
C	-8.5379	-11.8646	-4.2811
H	-8.4830	-12.3409	-3.2817
C	-10.0493	-14.5367	-3.8016
H	-10.8954	-15.2541	-3.7348
H	-10.1806	-13.8233	-2.9606
C	-8.7475	-15.3178	-3.6404
H	-7.8678	-14.6433	-3.6902
H	-8.6610	-16.0828	-4.4415
H	-8.7435	-15.8317	-2.6565
C	-10.3056	-11.8162	-8.9974
H	-10.6758	-12.5362	-9.7608
H	-9.3043	-11.4829	-9.3425
C	-11.2740	-10.6361	-8.9516
H	-11.3362	-10.1675	-9.9554
H	-10.9342	-9.8692	-8.2250
H	-12.2879	-10.9847	-8.6594
C	-8.6177	-10.6456	-6.6581
H	-8.6264	-10.1143	-7.6315
C	0.8956	-11.0974	-7.0378
C	1.6265	-11.6065	-5.9529
H	2.7099	-11.5784	-5.9704
C	0.9591	-12.1395	-4.8390
C	-0.4435	-12.1688	-4.8181
H	-0.9624	-12.5745	-3.9568
C	-1.1798	-11.6601	-5.8987
C	-0.5068	-11.1288	-7.0075
H	-1.0747	-10.7297	-7.8405
B	1.6328	-10.4680	-8.2680
O	0.9194	-9.8902	-9.4100
C	1.9850	-9.4129	-10.1528
C	1.8835	-8.7240	-11.3648
H	0.9204	-8.5286	-11.8175
C	3.0725	-8.2856	-11.9646
C	4.3344	-8.5477	-11.3520
C	4.4083	-9.2398	-10.1351
H	5.3587	-9.4326	-9.6542
C	3.2090	-9.6617	-9.5548
O	3.0902	-10.3313	-8.3486
B	1.7671	-12.6754	-3.6096
O	3.2310	-12.6423	-3.5298
C	3.4206	-13.1582	-2.2573
C	4.6580	-13.3455	-1.6319
H	5.5810	-13.0900	-2.1350
C	4.6559	-13.8708	-0.3313
C	3.4297	-14.1955	0.3191
C	2.2026	-13.9931	-0.3266
H	1.2648	-14.2279	0.1595
C	2.2311	-13.4719	-1.6231
O	1.1200	-13.2008	-2.4039
B	-2.7434	-11.6543	-5.8516
O	-3.5074	-12.1715	-4.7137
C	-4.7939	-11.8602	-5.1185
C	-5.9571	-12.1114	-4.3860
H	-5.9130	-12.5971	-3.4200
C	-7.1755	-11.7009	-4.9411
C	-7.2162	-11.0512	-6.2099
C	-6.0349	-10.8092	-6.9261
H	-6.0500	-10.3076	-7.8851
C	-4.8316	-11.2293	-6.3506
O	-3.5720	-11.0547	-6.9004
C	7.6859	-7.7370	7.3310
C	7.4298	-8.7320	6.3768
H	8.1291	-8.8899	5.5627
C	6.2667	-9.5117	6.4597
C	5.3586	-9.2960	7.5085
H	4.4561	-9.8941	7.5734
C	5.6070	-8.3003	8.4654
C	6.7732	-7.5268	8.3748
H	6.9660	-6.7525	9.1103
B	8.9665	-6.8436	7.2176
O	9.2614	-5.7502	8.1488
C	10.4100	-5.2361	7.5710
C	11.1249	-4.1267	8.0342
H	10.8107	-3.5917	8.9215
C	12.2472	-3.7221	7.2972
C	12.6352	-4.4275	6.1198
C	11.9019	-5.5370	5.6767
H	12.1783	-6.0711	4.7769
C	10.7864	-5.9197	6.4283
O	9.9307	-6.9636	6.1203
B	5.9725	-10.5955	5.3698
O	6.8625	-10.8410	4.2313
C	6.1403	-11.8101	3.5567
C	6.5220	-12.4174	2.3569
H	7.4522	-12.1553	1.8700
C	5.6561	-13.3730	1.8075
C	4.4304	-13.7019	2.4582
C	4.0697	-13.0790	3.6618
H	3.1413	-13.3183	4.1627
C	4.9521	-12.1310	4.1901
O	4.7538	-11.4106	5.3559
B	4.5790	-8.0229	9.6135
O	3.3244	-8.7660	9.7713
C	2.7786	-8.1004	10.8574
C	1.5435	-8.3834	11.4490
H	0.9189	-9.1861	11.0792
C	1.1422	-7.5871	12.5318
C	1.9735	-6.5277	13.0029
C	3.2092	-6.2664	12.3941
H	3.8481	-5.4632	12.7391
C	3.5861	-7.0743	11.3178
O	4.7571	-6.9468	10.5922
C	6.8444	1.3534	-10.9858
C	6.6574	-0.0119	-11.2443
H	7.4084	-0.7277	-10.9276
C	5.5002	-0.4584	-11.8981
C	4.5264	0.4713	-12.2990
H	3.6273	0.1295	-12.7979
C	4.7113	1.8400	-12.0494
C	5.8713	2.2767	-11.3942
H	6.0131	3.3320	-11.1921
B	8.1189	1.8422	-10.2223
O	8.3526	3.2490	-9.8866
C	9.5414	3.1385	-9.1843
C	10.2384	4.2017	-8.6028
H	9.8690	5.2159	-8.6750
C	11.4249	3.9031	-7.9200
C	11.8899	2.5586	-7.8218
C	11.1692	1.5085	-8.4091
H	11.5057	0.4831	-8.3356
C	9.9918	1.8336	-9.0916
O	9.1519	0.9310	-9.7231
B	5.2894	-1.9889	-12.1519
O	6.2566	-3.0038	-11.7223
C	5.5868	-4.1569	-12.0953
C	6.0449	-5.4614	-11.8880
H	6.9993	-5.6489	-11.4131
C	5.2173	-6.5142	-12.3016
C	3.9547	-6.2503	-12.9098
C	3.5170	-4.9317	-13.1052
H	2.5551	-4.7181	-13.5505
C	4.3618	-3.8996	-12.6846
O	4.0804	-2.5444	-12.7679
C	11.4189	5.1860	2.2652
C	11.6136	5.1470	0.8765
H	11.3729	6.0162	0.2740
C	12.1096	3.9870	0.2633
C	12.4119	2.8629	1.0463
H	12.7918	1.9641	0.5745
C	12.2179	2.8944	2.4360
C	11.7220	4.0579	3.0411
H	11.5670	4.0833	4.1148
B	12.3059	3.9427	-1.2889
O	11.9679	5.0629	-2.1710
C	12.2612	4.5057	-3.4036
C	12.1039	5.1384	-4.6401
H	11.7303	6.1529	-4.7041
C	12.4331	4.4092	-5.7908
C	12.9042	3.0666	-5.6919
C	13.0560	2.4554	-4.4402
H	13.4072	1.4356	-4.3501
C	12.7251	3.2039	-3.3072
O	12.7907	2.7550	-1.9984
B	12.5381	1.6329	3.3050
O	13.0182	0.3720	2.7344
C	13.0974	-0.4033	3.8799
C	13.4887	-1.7436	3.9246
H	13.7744	-2.2710	3.0242
C	13.4848	-2.3800	5.1730
C	13.0967	-1.6735	6.3494
C	12.7098	-0.3275	6.2781
H	12.4065	0.2183	7.1620
C	12.7192	0.2839	5.0203
O	12.3444	1.5920	4.7582
B	-3.6188	-2.8720	12.4811
O	-2.3353	-2.4890	13.0762
C	-1.7300	-3.7303	13.1837
C	-0.4432	-3.9693	13.6763
H	0.1783	-3.1557	14.0296
C	0.0142	-5.2944	13.6900
C	-0.8156	-6.3542	13.2185
C	-2.1005	-6.0889	12.7263
H	-2.7358	-6.8835	12.3560
C	-2.5322	-4.7594	12.7204
O	-3.7570	-4.3139	12.2507
B	-10.8708	-6.4891	-2.9488
O	-10.6101	-6.5835	-4.3869
C	-10.0999	-7.8695	-4.4593
C	-9.6568	-8.4989	-5.6249
H	-9.6944	-7.9937	-6.5811
C	-9.1567	-9.8037	-5.5081
C	-9.1129	-10.4530	-4.2390
C	-9.5578	-9.7966	-3.0830
H	-9.5178	-10.2753	-2.1130
C	-10.0496	-8.4965	-3.2270
O	-10.5189	-7.6977	-2.1979
