264

N	2.7343	3.1481	3.5660
O	1.5488	3.3070	5.4738
Br	4.4750	5.7278	4.9230
C	4.3446	0.7575	2.9659
H	3.9874	0.8022	3.9880
C	4.4226	1.9342	2.2044
C	3.9905	3.2596	2.7849
H	3.8475	4.0038	1.9760
H	4.8385	3.6395	3.3642
C	1.5505	2.6059	2.8497
H	1.8230	1.6746	2.3101
H	0.7411	2.2882	3.5390
C	2.6171	3.4999	4.9127
C	3.7403	4.1220	5.7633
C	3.1873	4.6158	7.1205
H	3.9897	5.0970	7.7206
H	2.3808	5.3645	6.9644
H	2.7733	3.7713	7.7153
C	4.8453	3.0907	6.0735
H	5.3221	2.6649	5.1737
H	5.6474	3.5597	6.6814
H	4.4225	2.2398	6.6501
N	-1.2525	-4.9652	-1.9334
O	0.3439	-5.5866	-3.3949
Br	-2.9071	-7.6117	-3.2898
C	-0.8217	-5.1809	0.9671
H	-0.0758	-5.6913	0.3707
C	-2.0762	-4.8879	0.4092
C	-2.3874	-5.2532	-1.0231
H	-3.2815	-4.7013	-1.3723
H	-2.6958	-6.3031	-1.0195
C	-0.7690	-3.5603	-1.9698
H	-0.6072	-3.1844	-0.9378
H	0.2269	-3.4614	-2.4490
C	-0.6152	-5.9284	-2.7190
C	-1.0234	-7.4111	-2.8032
C	-0.2521	-8.1250	-3.9362
H	-0.4541	-7.6361	-4.9141
H	0.8442	-8.1029	-3.7506
H	-0.5638	-9.1891	-4.0150
C	-0.6971	-8.1579	-1.4933
H	-1.1939	-7.7357	-0.6042
H	-1.0083	-9.2205	-1.5710
H	0.3966	-8.1290	-1.2995
N	0.5326	4.8648	2.4712
O	2.2368	5.9907	1.5241
Br	0.8180	7.2628	4.8568
C	-2.1093	4.7338	1.1774
H	-1.4406	5.4636	0.7379
C	-1.8845	4.2851	2.4881
C	-0.7060	4.7931	3.2843
H	-0.5262	4.1380	4.1613
H	-1.0091	5.7533	3.7126
C	0.9821	3.6020	1.8315
H	0.1342	3.1157	1.3062
H	1.7321	3.7708	1.0312
C	1.2673	6.0347	2.2677
C	0.9537	7.3981	2.9104
C	2.1128	8.3923	2.6725
H	2.2577	8.5865	1.5867
H	1.9052	9.3652	3.1691
H	3.0625	7.9922	3.0888
C	-0.3154	8.0271	2.2986
H	-0.5221	9.0108	2.7716
H	-0.1756	8.1877	1.2079
H	-1.2216	7.4101	2.4205
N	-2.0146	-3.0255	-4.0787
O	-4.1197	-3.6317	-3.5561
Br	-2.3692	-5.3978	-6.4821
C	-1.4287	-0.3289	-5.1087
H	-2.4844	-0.5713	-5.0880
C	-0.4786	-1.3619	-5.1012
C	-0.9118	-2.8074	-5.0450
H	-0.0540	-3.4525	-4.7672
H	-1.1579	-3.1004	-6.0699
C	-1.7577	-2.6217	-2.6718
H	-1.3438	-1.5927	-2.6396
H	-2.6867	-2.5568	-2.0684
C	-3.2601	-3.5591	-4.4201
C	-3.6461	-4.0711	-5.8202
C	-4.9952	-4.8245	-5.7721
H	-5.8178	-4.1527	-5.4415
H	-5.2599	-5.2225	-6.7752
H	-4.9368	-5.6820	-5.0677
C	-3.8135	-2.9033	-6.8153
H	-4.0896	-3.2915	-7.8184
H	-4.6214	-2.2215	-6.4712
H	-2.9047	-2.2909	-6.9394
N	-1.6822	3.1941	-4.1104
O	-1.1580	5.3310	-3.6314
Br	-3.6089	4.6350	-6.5052
C	0.3461	1.3194	-5.1417
H	0.6635	2.3557	-5.1459
C	-1.0237	1.0139	-5.1043
C	-2.0585	2.1117	-5.0511
H	-3.0423	1.6972	-4.7530
H	-2.2024	2.4531	-6.0812
C	-1.4325	2.7943	-2.7013
H	-0.7440	1.9239	-2.6661
H	-0.9026	3.5764	-2.1205
C	-1.5351	4.5337	-4.4770
C	-1.8131	5.0995	-5.8833
C	-1.8006	6.6450	-5.8604
H	-2.0388	7.0548	-6.8661
H	-2.5595	7.0300	-5.1448
H	-0.8034	7.0336	-5.5581
C	-0.7333	4.6518	-6.8891
H	-0.9480	5.0729	-7.8945
H	0.2653	5.0163	-6.5660
H	-0.6559	3.5567	-7.0030
N	3.9712	-2.8617	2.4252
O	4.0708	-4.9264	1.5291
Br	5.9608	-4.2742	4.7974
C	5.1600	-0.5290	1.0829
H	5.4339	-1.4821	0.6450
C	4.6858	-0.4810	2.4028
C	4.5371	-1.7432	3.2178
H	3.8874	-1.5563	4.0947
H	5.5225	-1.9579	3.6432
C	2.6475	-2.6282	1.7932
H	2.6482	-1.6604	1.2496
H	2.4097	-3.3750	1.0083
C	4.6126	-4.0888	2.2361
C	5.9692	-4.4805	2.8526
C	6.2600	-5.9818	2.6257
H	6.3171	-6.2191	1.5403
H	7.2278	-6.2683	3.0912
H	5.4626	-6.6067	3.0807
C	7.1247	-3.6911	2.2054
H	7.1983	-3.9367	1.1238
H	7.0127	-2.5961	2.2786
H	8.0894	-3.9573	2.6894
N	-3.6943	3.5375	-1.9146
O	-5.0682	2.4643	-3.3401
Br	-5.1218	6.3027	-3.2702
C	-4.0402	3.2817	0.9984
H	-4.8672	2.8877	0.4196
C	-3.1691	4.2176	0.4178
C	-3.3575	4.6649	-1.0123
H	-2.4373	5.1622	-1.3810
H	-4.1113	5.4579	-0.9935
C	-2.7245	2.4138	-1.9666
H	-2.4575	2.0911	-0.9383
H	-3.1508	1.5011	-2.4314
C	-4.8590	3.4733	-2.6838
C	-5.9196	4.5864	-2.7736
C	-6.9274	4.2882	-3.9068
H	-7.4810	3.3441	-3.7110
H	-7.6719	5.1089	-3.9978
H	-6.4020	4.1924	-4.8814
C	-6.7279	4.6977	-1.4647
H	-6.1109	4.9220	-0.5773
H	-7.4874	5.5033	-1.5505
H	-7.2566	3.7415	-1.2593
N	1.4009	-3.8740	3.5749
O	2.1374	-2.8679	5.4492
Br	2.7989	-6.6214	5.0029
C	-1.4840	-4.1226	3.0432
H	-1.2497	-3.8148	4.0551
C	-0.5113	-4.7801	2.2740
C	0.8677	-5.0414	2.8312
H	1.5683	-5.3007	2.0129
H	0.7968	-5.9537	3.4314
C	1.5087	-2.5993	2.8209
H	0.5607	-2.3914	2.2833
H	1.6404	-1.7202	3.4835
C	1.7754	-3.9084	4.9205
C	1.7673	-5.1670	5.8074
C	2.4764	-4.8879	7.1528
H	3.5234	-4.5583	6.9807
H	1.9467	-4.0972	7.7271
H	2.5055	-5.8055	7.7797
C	0.3272	-5.6118	6.1374
H	-0.2136	-4.7963	6.6638
H	-0.2710	-5.8791	5.2498
H	0.3427	-6.5035	6.8002
N	-4.4266	-1.9970	2.5195
O	-6.2500	-1.0666	1.5812
Br	-6.6308	-2.9342	4.9176
C	-3.0396	-4.2318	1.1892
H	-4.0114	-4.0080	0.7655
C	-2.7409	-3.8228	2.4986
C	-3.7498	-3.0504	3.3146
H	-3.2578	-2.5829	4.1905
H	-4.4349	-3.7884	3.7439
C	-3.5509	-0.9778	1.8848
H	-2.7159	-1.4722	1.3470
H	-4.0712	-0.3981	1.0953
C	-5.8073	-1.9321	2.3221
C	-6.8376	-2.8739	2.9737
C	-8.2732	-2.3454	2.7543
H	-8.3812	-1.3231	3.1770
H	-8.5251	-2.3072	1.6713
H	-9.0157	-3.0038	3.2556
C	-6.7737	-4.2860	2.3551
H	-7.0038	-4.2389	1.2695
H	-5.7888	-4.7720	2.4561
H	-7.5204	-4.9508	2.8409
N	3.5422	-0.2054	-4.1701
O	5.1454	-1.7139	-3.6963
Br	5.7104	0.7243	-6.6105
C	0.8864	-1.0413	-5.1402
H	1.6242	-1.8345	-5.1450
C	1.3062	0.2979	-5.1337
C	2.7751	0.6452	-5.1120
H	2.9121	1.7089	-4.8323
H	3.1248	0.5837	-6.1478
C	3.0940	-0.2036	-2.7538
H	1.9978	-0.3668	-2.6995
H	3.5191	-1.0446	-2.1687
C	4.6278	-1.0017	-4.5427
C	5.2371	-1.0579	-5.9577
C	6.5755	-1.8317	-5.9421
H	7.0353	-1.8407	-6.9549
H	7.2959	-1.3524	-5.2445
H	6.4247	-2.8868	-5.6248
C	4.3008	-1.7886	-6.9409
H	4.1331	-2.8346	-6.6038
H	3.3068	-1.3196	-7.0423
H	4.7561	-1.8182	-7.9537
N	-4.0002	0.7424	3.6539
O	-3.5035	-0.3775	5.5446
Br	-7.0737	0.9560	5.0912
C	-2.7620	3.3492	3.0551
H	-2.5988	3.0069	4.0705
C	-3.8279	2.8249	2.3075
C	-4.7432	1.7776	2.8959
H	-5.3295	1.2878	2.0932
H	-5.4875	2.3132	3.4928
C	-2.9537	-0.0057	2.9097
H	-2.2884	0.7020	2.3720
H	-2.2672	-0.5627	3.5797
C	-4.2164	0.4566	5.0045
C	-5.2938	1.1160	5.8867
C	-5.4096	0.3839	7.2433
H	-4.4583	0.4495	7.8160
H	-6.2155	0.8327	7.8646
H	-5.6561	-0.6886	7.0882
C	-4.9439	2.5868	6.1927
H	-4.8743	3.2248	5.2953
H	-5.7165	3.0362	6.8530
H	-3.9638	2.6459	6.7131
N	4.8778	1.3998	-2.0240
O	4.6020	3.1057	-3.4682
Br	7.9645	1.2454	-3.4281
C	4.8983	1.8709	0.8868
H	4.9693	2.7774	0.2976
C	5.2474	0.6392	0.3120
C	5.7058	0.5602	-1.1243
H	5.6766	-0.4893	-1.4792
H	6.7667	0.8248	-1.1266
C	3.4190	1.1169	-2.0442
H	3.0265	1.0607	-1.0071
H	2.8316	1.9337	-2.5098
C	5.3864	2.4316	-2.8172
C	6.8773	2.7969	-2.9397
C	7.0984	3.8012	-4.0943
H	6.7390	3.3744	-5.0553
H	6.5555	4.7533	-3.9070
H	8.1779	4.0384	-4.2081
C	7.3962	3.4662	-1.6506
H	8.4713	3.7249	-1.7592
H	6.8313	4.4028	-1.4521
H	7.3010	2.8344	-0.7512
