276

O	-3.9854	4.7762	0.0477
N	-3.8874	3.1057	1.5646
C	-4.0733	-0.1642	3.0570
H	-3.7370	0.1510	4.0372
C	-4.5516	0.7831	2.1392
C	-4.6227	2.2409	2.5158
H	-4.2206	2.4028	3.5382
H	-5.7035	2.4904	2.5441
C	-2.5228	2.7105	1.1411
H	-2.1119	3.3844	0.3606
H	-2.5455	1.7050	0.6729
C	-4.4701	4.2506	1.0368
C	-5.6723	4.8937	1.6311
C	-6.8976	5.7356	3.5594
H	-6.9790	5.8599	4.6316
Br	-9.3962	7.1558	3.4527
C	-7.8888	6.2439	2.7148
C	-7.7716	6.0878	1.3305
H	-8.5319	6.4883	0.6730
C	-6.6681	5.4201	0.7901
H	-6.5943	5.3105	-0.2854
C	-5.7930	5.0714	3.0213
H	-5.0299	4.7043	3.6935
O	5.0462	-2.1018	-2.9701
N	3.8393	-3.2288	-1.4294
C	2.3462	-4.1903	1.7010
H	1.7996	-5.0357	1.3000
C	3.4181	-3.6409	0.9833
C	3.8327	-4.2327	-0.3396
H	3.1629	-5.0713	-0.6219
H	4.8427	-4.6608	-0.1726
C	2.6789	-2.3166	-1.5715
H	2.8381	-1.5533	-2.3616
H	2.5320	-1.7389	-0.6359
C	4.9238	-3.1067	-2.2867
C	5.9627	-4.1593	-2.4323
C	6.5975	-6.4921	-2.7327
H	6.3152	-7.5354	-2.8021
Br	9.2803	-7.4480	-3.1334
C	7.9381	-6.1176	-2.8536
C	8.2948	-4.7689	-2.7738
H	9.3312	-4.4726	-2.8757
C	7.3132	-3.7937	-2.5674
H	7.6087	-2.7528	-2.5094
C	5.6147	-5.5208	-2.5303
H	4.5822	-5.8333	-2.4601
O	-1.9608	3.1138	5.0162
N	-1.4708	4.0062	2.9992
C	0.3678	5.0805	0.0988
H	-0.4942	5.4638	-0.4343
C	0.2990	4.8601	1.4819
C	-0.9644	5.1735	2.2418
H	-1.7578	5.5321	1.5538
H	-0.7074	6.0172	2.9150
C	-1.5455	2.6883	2.3231
H	-1.8526	1.8765	3.0152
H	-0.5416	2.3917	1.9559
C	-1.8369	4.1192	4.3338
C	-2.1041	5.4250	4.9913
C	-3.1649	7.6180	5.0091
H	-3.7487	8.3764	4.5034
Br	-3.1289	9.4657	7.2128
C	-2.7176	7.8300	6.3157
C	-1.9730	6.8425	6.9662
H	-1.6316	6.9981	7.9819
C	-1.6698	5.6447	6.3098
H	-1.0924	4.8901	6.8308
C	-2.8679	6.4217	4.3520
H	-3.2413	6.2731	3.3493
O	0.9000	-5.7883	-2.0939
N	1.5207	-3.8821	-3.1341
C	1.3592	-0.7260	-4.8568
H	2.4314	-0.5793	-4.9031
C	0.8343	-2.0024	-4.6044
C	1.7544	-3.1819	-4.4181
H	2.8162	-2.8636	-4.4697
H	1.5690	-3.8465	-5.2860
C	1.3892	-3.0823	-1.8928
H	1.1262	-3.7078	-1.0142
H	0.5550	-2.3578	-1.9930
C	1.3832	-5.2631	-3.0840
C	1.8136	-6.1594	-4.1900
C	3.4649	-6.8615	-5.8358
H	4.4128	-6.7016	-6.3333
Br	3.2447	-9.1736	-7.5322
C	2.6665	-7.9568	-6.1779
C	1.4489	-8.1617	-5.5235
H	0.8320	-9.0140	-5.7794
C	1.0247	-7.2713	-4.5327
H	0.0779	-7.4479	-4.0361
C	3.0453	-5.9727	-4.8435
H	3.6893	-5.1436	-4.5835
O	-0.8148	-1.7154	5.9243
N	-2.1580	-2.2413	4.1863
C	-4.4827	-1.9356	1.4555
H	-4.4672	-2.9864	1.1885
C	-4.0265	-1.5236	2.7154
C	-3.5322	-2.5364	3.7165
H	-3.5562	-3.5594	3.2851
H	-4.2632	-2.5139	4.5507
C	-1.1172	-1.8962	3.1889
H	-0.1564	-1.6084	3.6649
H	-1.4294	-1.0065	2.6044
C	-1.8463	-2.2440	5.5389
C	-2.7099	-2.8805	6.5669
C	-4.0395	-4.7619	7.3585
H	-4.4774	-5.7356	7.1800
Br	-5.2537	-4.9655	9.9578
C	-4.2220	-4.1236	8.5879
C	-3.6452	-2.8705	8.8145
H	-3.7762	-2.3763	9.7693
C	-2.8908	-2.2529	7.8124
H	-2.4498	-1.2828	8.0069
C	-3.2833	-4.1497	6.3564
H	-3.1402	-4.6715	5.4213
O	4.1124	2.7970	-3.7374
N	2.0068	2.1918	-4.2865
C	-0.8842	0.1752	-5.0147
H	-1.5540	1.0114	-5.1816
C	0.5037	0.3681	-5.0515
C	1.0770	1.7310	-5.3445
H	0.2671	2.4797	-5.4671
H	1.5879	1.6363	-6.3250
C	1.6027	2.0554	-2.8669
H	2.4143	2.3481	-2.1684
H	1.3875	0.9928	-2.6322
C	3.2563	2.7065	-4.6039
C	3.6156	3.1767	-5.9672
C	3.1070	4.4560	-7.9770
H	2.4130	5.0584	-8.5491
Br	4.8935	4.8472	-10.1967
C	4.3779	4.1748	-8.4845
C	5.2722	3.4042	-7.7355
H	6.2618	3.1915	-8.1210
C	4.8957	2.9104	-6.4828
H	5.6027	2.3170	-5.9161
C	2.7287	3.9677	-6.7242
H	1.7479	4.2148	-6.3447
O	-2.0563	-5.5252	1.9882
N	-0.4288	-4.2847	2.9439
C	2.6928	-2.5754	3.4746
H	2.4238	-2.1657	4.4409
C	1.9727	-3.6546	2.9426
C	0.8342	-4.2663	3.7166
H	0.6690	-3.7220	4.6698
H	1.1671	-5.2925	3.9789
C	-0.8476	-3.0576	2.2239
H	-1.7577	-3.2196	1.6093
H	-0.0615	-2.7526	1.5030
C	-1.1998	-5.4358	2.8525
C	-1.0443	-6.5887	3.7792
C	-0.8201	-7.4908	6.0296
H	-0.7035	-7.3271	7.0932
Br	-0.7953	-10.2859	6.7068
C	-0.8999	-8.7904	5.5228
C	-1.0606	-8.9942	4.1497
H	-1.1313	-9.9989	3.7533
C	-1.1360	-7.8999	3.2812
H	-1.2619	-8.0777	2.2197
C	-0.8991	-6.3957	5.1663
H	-0.8545	-5.4004	5.5839
O	-1.2400	4.4435	-4.1734
N	0.5815	4.3347	-2.8427
C	2.6740	4.3357	0.0846
H	3.5974	4.1407	-0.4479
C	1.5499	4.8100	-0.6065
C	1.6212	5.0723	-2.0892
H	2.6205	4.8011	-2.4883
H	1.5082	6.1700	-2.2048
C	0.3620	2.8983	-2.5459
H	-0.4997	2.4791	-3.1063
H	0.1033	2.7662	-1.4753
C	-0.2104	4.9732	-3.7876
C	0.1406	6.2923	-4.3785
C	1.7526	7.7968	-5.4112
H	2.7678	8.0043	-5.7243
Br	1.1554	10.4041	-6.4681
C	0.7439	8.7392	-5.6262
C	-0.5664	8.4605	-5.2287
H	-1.3528	9.1840	-5.4007
C	-0.8690	7.2422	-4.6108
H	-1.8911	7.0434	-4.3106
C	1.4538	6.5776	-4.7984
H	2.2468	5.8570	-4.6606
O	-3.8609	-4.1722	-2.5269
N	-4.4538	-2.2123	-1.5743
C	-5.0043	0.3598	0.8817
H	-5.3912	1.0906	0.1807
C	-4.9630	-0.9974	0.5302
C	-5.4716	-1.4532	-0.8126
H	-5.8089	-0.5870	-1.4207
H	-6.3675	-2.0722	-0.5998
C	-3.0739	-1.6759	-1.6601
H	-2.3818	-2.3735	-2.1766
H	-2.6510	-1.5489	-0.6424
C	-4.7603	-3.4281	-2.1708
C	-6.1553	-3.8787	-2.4160
C	-8.4147	-3.4572	-3.2222
H	-9.1516	-2.7690	-3.6163
Br	-10.5096	-5.4192	-3.4052
C	-8.7473	-4.7972	-3.0089
C	-7.7881	-5.6823	-2.5094
H	-8.0387	-6.7231	-2.3503
C	-6.4976	-5.2279	-2.2173
H	-5.7669	-5.9292	-1.8319
C	-7.1256	-3.0013	-2.9363
H	-6.8867	-1.9653	-3.1280
O	6.0567	1.2582	0.6570
N	4.3517	2.3467	1.6615
C	1.4295	4.3854	2.1636
H	1.3797	4.2328	3.2352
C	2.6160	4.1119	1.4682
C	3.8367	3.6241	2.2059
H	3.6176	3.4961	3.2862
H	4.5853	4.4382	2.1168
C	3.3973	1.2465	1.3847
H	3.8857	0.3777	0.8959
H	2.6231	1.5857	0.6662
C	5.6997	2.1814	1.3708
C	6.7581	3.0801	1.9039
C	7.7934	4.2816	3.7512
H	7.7762	4.5942	4.7875
Br	10.2696	5.7375	3.6095
C	8.8512	4.6593	2.9204
C	8.8713	4.2435	1.5858
H	9.6935	4.5269	0.9411
C	7.8333	3.4552	1.0799
H	7.8671	3.1410	0.0439
C	6.7565	3.4910	3.2505
H	5.9596	3.1956	3.9174
O	-5.0646	1.2455	-3.3914
N	-3.5898	-0.4251	-3.7592
C	-0.5563	-2.1837	-4.5693
H	-0.9596	-3.1738	-4.3924
C	-1.4200	-1.0963	-4.7632
C	-2.9139	-1.2973	-4.7485
H	-3.1658	-2.3567	-4.5311
H	-3.2552	-1.0841	-5.7817
C	-3.0327	-0.3271	-2.3895
H	-3.5686	0.4218	-1.7696
H	-1.9827	0.0289	-2.4305
C	-4.7065	0.3228	-4.1073
C	-5.5163	0.0512	-5.3234
C	-6.6890	-1.4969	-6.7941
H	-6.9506	-2.5126	-7.0621
Br	-8.2904	-0.7473	-9.0623
C	-7.1716	-0.4242	-7.5480
C	-6.8381	0.8848	-7.1902
H	-7.2162	1.7194	-7.7662
C	-6.0176	1.1228	-6.0823
H	-5.7707	2.1447	-5.8195
C	-5.8732	-1.2619	-5.6850
H	-5.5288	-2.1071	-5.1056
O	2.8682	1.6692	5.2617
N	3.6920	0.2917	3.6728
C	4.1318	-2.5612	1.5245
H	4.9711	-2.1498	0.9765
C	3.7669	-2.0183	2.7647
C	4.5495	-0.8734	3.3556
H	5.3570	-0.5523	2.6656
H	5.0372	-1.2819	4.2646
C	2.7090	0.7563	2.6649
H	2.0647	1.5740	3.0502
H	2.0105	-0.0659	2.4067
C	3.7670	0.9237	4.9071
C	4.9145	0.7486	5.8369
C	7.3102	0.6724	6.2649
H	8.3258	0.6873	5.8909
Br	8.5303	0.4288	8.8580
C	7.0676	0.5621	7.6365
C	5.7540	0.5537	8.1132
H	5.5612	0.4767	9.1754
C	4.6817	0.6497	7.2197
H	3.6704	0.6434	7.6074
C	6.2425	0.7728	5.3701
H	6.4558	0.8767	4.3161
