276

N	5.2807	0.6975	-4.7572
N	4.0949	-1.1015	-5.6802
N	3.4159	1.0997	-6.1185
N	6.2235	7.7817	-4.2032
N	8.8794	-5.5465	-2.7066
N	-1.6981	-1.4899	-10.4303
N	-0.8629	5.5931	3.9325
N	-0.0174	6.6173	2.0000
N	1.4516	5.7089	3.5838
N	-7.4417	7.5482	1.9111
N	5.6607	9.0018	-1.6569
N	2.4378	2.7258	10.0134
N	-7.0647	-1.4157	-0.7457
N	-6.7351	-0.0142	-2.5958
N	-6.2306	-2.2961	-2.7529
N	-9.3148	5.4679	1.2083
N	-4.4750	-1.2793	-9.6309
N	-6.8809	-8.0421	2.0126
N	1.3111	-4.6783	5.2653
N	3.4402	-4.6547	4.2902
N	1.7719	-6.0624	3.4300
N	3.5746	0.0677	10.1106
N	8.0053	-7.2804	-0.5600
N	-4.8930	-8.6834	4.0177
C	4.4330	1.5760	-5.3542
C	3.2391	-0.2371	-6.2872
C	5.1193	-0.6421	-4.9144
C	4.6179	3.0362	-5.1748
C	5.7553	3.5400	-4.5189
H	6.5159	2.8717	-4.1344
C	5.9304	4.9171	-4.3557
H	6.8155	5.2753	-3.8433
C	4.9666	5.8193	-4.8383
C	3.8266	5.3186	-5.4839
H	3.0675	5.9943	-5.8582
C	3.6553	3.9427	-5.6565
H	2.7647	3.5901	-6.1609
C	5.1199	7.2761	-4.6649
H	4.2930	7.9261	-4.9286
C	2.1290	-0.7452	-7.1313
C	1.3664	0.1363	-7.9191
H	1.5775	1.1988	-7.9238
C	0.3268	-0.3436	-8.7225
H	-0.2402	0.3595	-9.3191
C	0.0238	-1.7152	-8.7466
C	0.7771	-2.5950	-7.9553
H	0.5588	-3.6563	-7.9568
C	1.8227	-2.1169	-7.1597
H	2.3862	-2.8240	-6.5639
C	-1.0691	-2.2490	-9.5837
H	-1.3341	-3.2968	-9.4936
C	6.0574	-1.5888	-4.2622
C	5.9591	-2.9727	-4.4941
H	5.1935	-3.3724	-5.1493
C	6.8519	-3.8601	-3.8848
H	6.7505	-4.9202	-4.0798
C	7.8548	-3.3824	-3.0245
C	7.9504	-2.0048	-2.7853
H	8.7161	-1.6155	-2.1260
C	7.0651	-1.1163	-3.4019
H	7.1714	-0.0579	-3.1999
C	8.7981	-4.3001	-2.3557
H	9.4395	-3.9128	-1.5707
C	-1.0813	6.2395	2.7565
C	1.2525	6.3539	2.4055
C	0.4003	5.3245	4.3540
C	-2.4624	6.5541	2.3205
C	-3.5528	6.3212	3.1779
H	-3.4025	5.8956	4.1628
C	-4.8516	6.6459	2.7790
H	-5.6699	6.4555	3.4623
C	-5.0895	7.1990	1.5103
C	-4.0072	7.4193	0.6468
H	-4.1695	7.8445	-0.3368
C	-2.7053	7.1073	1.0489
H	-1.8902	7.2981	0.3625
C	-6.4552	7.5410	1.0687
H	-6.6242	7.7957	0.0276
C	2.4072	6.7884	1.5846
C	2.2185	7.6279	0.4729
H	1.2269	7.9602	0.1908
C	3.3112	8.0613	-0.2839
H	3.1348	8.7086	-1.1338
C	4.6138	7.6551	0.0512
C	4.8042	6.8044	1.1485
H	5.7996	6.4734	1.4212
C	3.7133	6.3797	1.9136
H	3.8941	5.7281	2.7589
C	5.7810	8.0945	-0.7360
H	6.7489	7.6473	-0.5367
C	0.6306	4.6410	5.6483
C	1.9252	4.5619	6.1923
H	2.7722	4.9953	5.6746
C	2.1441	3.9323	7.4201
H	3.1527	3.8894	7.8117
C	1.0730	3.3591	8.1258
C	-0.2176	3.4281	7.5835
H	-1.0581	2.9907	8.1097
C	-0.4396	4.0688	6.3597
H	-1.4488	4.1090	5.9704
C	1.2860	2.6763	9.4176
H	0.4631	2.1314	9.8669
C	-7.1265	-0.1789	-1.3053
C	-6.2872	-1.0669	-3.3273
C	-6.6169	-2.4806	-1.4630
C	-7.6116	0.9826	-0.5198
C	-7.7929	2.2344	-1.1352
H	-7.5859	2.3704	-2.1899
C	-8.2450	3.3313	-0.3976
H	-8.3696	4.2832	-0.8989
C	-8.5184	3.2011	0.9745
C	-8.3367	1.9561	1.5923
H	-8.5408	1.8337	2.6491
C	-7.8924	0.8550	0.8525
H	-7.7639	-0.0926	1.3597
C	-8.9682	4.3542	1.7780
H	-9.0027	4.2614	2.8577
C	-5.8605	-0.8748	-4.7347
C	-5.5405	-1.9797	-5.5434
H	-5.6020	-2.9890	-5.1544
C	-5.1437	-1.7969	-6.8717
H	-4.9043	-2.6675	-7.4706
C	-5.0508	-0.5039	-7.4151
C	-5.3624	0.5988	-6.6081
H	-5.2977	1.6046	-7.0058
C	-5.7685	0.4171	-5.2836
H	-6.0047	1.2912	-4.6888
C	-4.6280	-0.2838	-8.8126
H	-4.4600	0.7312	-9.1542
C	-6.5375	-3.8274	-0.8464
C	-7.0780	-4.0686	0.4295
H	-7.5666	-3.2758	0.9835
C	-7.0012	-5.3406	1.0052
H	-7.4245	-5.4963	1.9893
C	-6.3751	-6.3955	0.3183
C	-5.8273	-6.1548	-0.9489
H	-5.3357	-6.9520	-1.4940
C	-5.9128	-4.8869	-1.5296
H	-5.4797	-4.7366	-2.5107
C	-6.2759	-7.7472	0.9031
H	-5.6954	-8.5018	0.3837
C	0.8981	-5.6111	4.3681
C	3.0454	-5.5884	3.3853
C	2.5786	-4.1951	5.2341
C	-0.4931	-6.1240	4.4157
C	-0.8974	-7.1921	3.5949
H	-0.2006	-7.6572	2.9085
C	-2.2070	-7.6794	3.6555
H	-2.4898	-8.5036	3.0134
C	-3.1409	-7.1009	4.5340
C	-2.7431	-6.0271	5.3419
H	-3.4459	-5.5638	6.0232
C	-1.4330	-5.5473	5.2890
H	-1.1599	-4.7196	5.9325
C	-4.5282	-7.5940	4.6220
H	-5.2430	-7.0398	5.2210
C	3.0100	-3.1675	6.2133
C	2.1752	-2.8133	7.2888
H	1.2118	-3.2902	7.4239
C	2.5751	-1.8422	8.2091
H	1.9077	-1.5901	9.0237
C	3.8153	-1.1976	8.0700
C	4.6469	-1.5420	6.9944
H	5.6058	-1.0553	6.8644
C	4.2527	-2.5222	6.0783
H	4.9174	-2.7663	5.2598
C	4.2492	-0.1599	9.0251
H	5.1467	0.4110	8.8123
C	3.9946	-6.0766	2.3556
C	5.3594	-5.7445	2.4268
H	5.7396	-5.1363	3.2389
C	6.2545	-6.1960	1.4533
H	7.2991	-5.9218	1.5365
C	5.8009	-6.9850	0.3829
C	4.4401	-7.3147	0.3063
H	4.0676	-7.9196	-0.5123
C	3.5455	-6.8715	1.2847
H	2.5015	-7.1425	1.1945
C	6.7247	-7.4645	-0.6636
H	6.3176	-7.9830	-1.5251
C	6.4186	9.2138	-3.9750
H	5.4867	9.7775	-4.2165
C	7.5441	9.7281	-4.8865
H	7.2484	9.5937	-5.9489
H	8.4730	9.1410	-4.7110
C	7.8209	11.2147	-4.6273
H	6.9308	11.8163	-4.9157
H	8.6736	11.5443	-5.2575
C	8.1541	11.4653	-3.1510
H	8.2834	12.5560	-2.9844
H	9.1142	10.9649	-2.8957
C	7.0404	10.9408	-2.2359
H	6.1116	11.5297	-2.4060
H	7.3467	11.0809	-1.1764
C	6.7724	9.4502	-2.4949
H	7.6995	8.8790	-2.2523
C	9.7798	-6.5058	-2.0656
H	10.2923	-6.0366	-1.1918
C	10.8534	-6.9481	-3.0731
H	11.4639	-6.0679	-3.3712
H	10.3698	-7.3561	-3.9883
C	11.7747	-8.0121	-2.4646
H	12.3476	-7.5721	-1.6184
H	12.5040	-8.3504	-3.2313
C	10.9672	-9.2169	-1.9671
H	11.6531	-9.9445	-1.4824
H	10.4852	-9.7252	-2.8316
C	9.8944	-8.7814	-0.9610
H	10.3851	-8.3783	-0.0469
H	9.2948	-9.6686	-0.6648
C	8.9668	-7.7186	-1.5712
H	8.4386	-8.1739	-2.4415
C	-2.7911	-1.9661	-11.2799
H	-3.0237	-3.0338	-11.0545
C	-2.3669	-1.8658	-12.7543
H	-1.4885	-2.5231	-12.9328
H	-2.0663	-0.8214	-12.9930
C	-3.5081	-2.2927	-13.6873
H	-3.7290	-3.3728	-13.5363
H	-3.1921	-2.1535	-14.7427
C	-4.7740	-1.4678	-13.4251
H	-5.5982	-1.8474	-14.0663
H	-4.5888	-0.4050	-13.6971
C	-5.1946	-1.5577	-11.9526
H	-5.4959	-2.6022	-11.7168
H	-6.0774	-0.9016	-11.7878
C	-4.0519	-1.1183	-11.0223
H	-3.8156	-0.0500	-11.2383
C	-8.8245	7.8436	1.5363
H	-8.9063	7.9918	0.4337
C	-9.2733	9.1379	2.2336
H	-8.6505	9.9854	1.8743
H	-9.1282	9.0475	3.3327
C	-10.7469	9.4400	1.9360
H	-10.8757	9.6476	0.8516
H	-11.0567	10.3474	2.4972
C	-11.6409	8.2627	2.3443
H	-12.6942	8.4871	2.0684
H	-11.5983	8.1271	3.4471
C	-11.1976	6.9700	1.6467
H	-11.3493	7.0702	0.5491
H	-11.8308	6.1294	2.0056
C	-9.7227	6.6618	1.9492
H	-9.6170	6.4958	3.0470
C	2.7258	2.0472	11.2769
H	1.8455	1.4460	11.6073
C	3.0277	3.0961	12.3596
H	2.1271	3.7266	12.5244
H	3.8552	3.7603	12.0249
C	3.4160	2.4248	13.6829
H	2.5508	1.8474	14.0779
H	3.6767	3.2041	14.4299
C	4.6140	1.4874	13.4887
H	4.8430	0.9781	14.4495
H	5.5077	2.0802	13.1932
C	4.3138	0.4353	12.4143
H	3.4880	-0.2249	12.7618
H	5.2163	-0.1966	12.2633
C	3.9281	1.1014	11.0838
H	4.8005	1.6960	10.7230
C	-6.8071	-9.3604	2.6419
H	-6.1301	-10.0332	2.0642
C	-8.2096	-9.9898	2.6647
H	-8.5634	-10.1398	1.6226
H	-8.9242	-9.3049	3.1744
C	-8.1947	-11.3427	3.3879
H	-7.5715	-12.0655	2.8168
H	-9.2292	-11.7452	3.4353
C	-7.6416	-11.1979	4.8099
H	-7.5906	-12.1992	5.2886
H	-8.3272	-10.5639	5.4151
C	-6.2418	-10.5710	4.7931
H	-5.5325	-11.2621	4.2856
H	-5.8951	-10.4300	5.8390
C	-6.2554	-9.2128	4.0734
H	-6.9210	-8.5221	4.6428
