132

N	-1.2522	-5.2706	-1.6143
O	-1.4632	-2.3373	-4.3536
C	-2.2348	-2.1390	-3.2398
C	-2.1758	-3.1347	-2.2468
C	-2.9695	-2.9782	-1.1247
H	-2.9405	-3.6514	-0.4548
C	-3.8090	-1.8861	-0.9274
C	-3.8382	-0.8930	-1.9055
C	-3.0641	-1.0370	-3.0620
H	-3.1059	-0.3716	-3.7375
C	-1.5535	-1.3513	-5.3714
H	-0.9585	-1.5922	-6.1128
H	-2.4764	-1.3003	-5.6950
H	-1.2862	-0.4811	-5.0086
C	-1.2820	-4.2899	-2.4281
H	-0.7052	-4.3052	-3.1814
C	-0.2916	-6.3266	-1.9177
H	-0.7756	-7.1687	-2.1169
H	0.2358	-6.0765	-2.7184
C	-4.6468	-1.8393	0.3448
H	-5.4475	-1.2782	0.1817
H	-4.9592	-2.7543	0.5582
N	-1.5263	1.2075	5.3073
O	-1.6053	-2.6341	4.1285
C	-2.3592	-1.7837	3.3645
C	-2.3446	-0.4258	3.7327
C	-3.1227	0.4528	2.9991
H	-3.1236	1.3698	3.2479
C	-3.9048	0.0619	1.9174
C	-3.8897	-1.2821	1.5454
C	-3.1309	-2.1955	2.2841
H	-3.1431	-3.1138	2.0437
C	-1.6519	-4.0093	3.7798
H	-1.0743	-4.5200	4.3863
H	-2.5729	-4.3339	3.8541
H	-1.3388	-4.1247	2.8581
C	-1.5114	0.0124	4.8644
H	-0.9406	-0.6214	5.2809
C	-0.6221	1.4908	6.4174
H	-1.1491	1.7291	7.2217
H	-0.0876	0.6839	6.6250
C	-4.7316	1.1239	1.2014
H	-5.5039	0.6870	0.7600
H	-5.0884	1.7585	1.8721
N	-1.4316	3.9641	-3.7670
O	-1.7115	4.8589	0.1410
C	-2.4260	3.7575	-0.2481
C	-2.3407	3.3991	-1.6064
C	-3.0779	2.3098	-2.0357
H	-3.0311	2.0675	-2.9531
C	-3.8852	1.5513	-1.1939
C	-3.9402	1.9006	0.1564
C	-3.2240	3.0124	0.6122
H	-3.2839	3.2612	1.5261
C	-1.8294	5.2423	1.5031
H	-1.2748	6.0345	1.6683
H	-2.7653	5.4504	1.7036
H	-1.5281	4.5074	2.0768
C	-1.4797	4.1770	-2.5114
H	-0.9392	4.8659	-2.1436
C	-0.5076	4.8023	-4.5247
H	-1.0171	5.3704	-5.1566
H	-0.0132	5.3964	-3.9050
C	-4.6615	0.3852	-1.7930
H	-5.4575	0.2059	-1.2310
H	-4.9819	0.6416	-2.6938
N	1.5421	-5.4062	-0.5916
O	1.6296	-3.7909	3.0877
C	2.3777	-3.1278	2.1518
C	2.3599	-3.6506	0.8456
C	3.1324	-3.0209	-0.1147
H	3.1312	-3.3741	-0.9969
C	3.9118	-1.8986	0.1455
C	3.8997	-1.3738	1.4376
C	3.1467	-2.0045	2.4331
H	3.1610	-1.6594	3.3173
C	1.6794	-3.2855	4.4132
H	1.1058	-3.8306	4.9928
H	2.6018	-3.3186	4.7408
H	1.3633	-2.3575	4.4224
C	1.5296	-4.8281	0.5445
H	0.9625	-5.1704	1.2243
C	0.6412	-6.5446	-0.7412
H	1.1703	-7.3694	-0.8868
H	0.1101	-6.6593	0.0863
C	4.7322	-1.3075	-0.9952
H	5.5044	-0.8159	-0.6152
H	5.0895	-2.0458	-1.5494
N	1.4042	3.2881	-4.3783
O	1.6957	-0.6962	-4.8164
C	2.4125	-0.1800	-3.7701
C	2.3233	1.2104	-3.5708
C	3.0625	1.7652	-2.5411
H	3.0130	2.7044	-2.4064
C	3.8755	1.0195	-1.6935
C	3.9344	-0.3619	-1.8846
C	3.2162	-0.9457	-2.9335
H	3.2787	-1.8821	-3.0751
C	1.8176	-2.0930	-5.0402
H	1.2609	-2.3506	-5.8059
H	2.7534	-2.3131	-5.2272
H	1.5208	-2.5789	-4.2428
C	1.4563	2.0165	-4.4449
H	0.9149	1.5696	-5.0846
C	0.4746	3.9407	-5.2950
H	0.9798	4.5043	-5.9344
H	-0.0194	3.2549	-5.8117
C	4.6535	1.7520	-0.6074
H	5.4522	1.2172	-0.3673
H	4.9696	2.6181	-0.9674
N	1.2638	2.2171	5.0439
O	1.4547	4.5995	1.8128
C	2.2297	3.4728	1.7417
C	2.1777	2.6014	2.8458
C	2.9752	1.4714	2.8170
H	2.9509	0.8837	3.5632
C	3.8118	1.1519	1.7519
C	3.8340	2.0087	0.6523
C	3.0561	3.1716	0.6646
H	3.0932	3.7657	-0.0746
C	1.5379	5.4968	0.7155
H	0.9410	6.2590	0.8712
H	2.4593	5.8154	0.6239
H	1.2690	5.0349	-0.1059
C	1.2872	2.9121	3.9756
H	0.7076	3.6602	3.9058
C	0.3056	2.6373	6.0613
H	0.7916	2.9342	6.8730
H	-0.2256	3.4019	5.7223
C	4.6542	-0.1143	1.8495
H	5.4524	-0.0145	1.2701
H	4.9704	-0.2194	2.7818
