132

N	-1.3147	-5.3146	-1.4073
O	-1.2419	-2.5364	-4.3106
C	-2.0802	-2.2526	-3.2657
C	-2.1217	-3.1917	-2.2181
C	-2.9840	-2.9485	-1.1640
H	-3.0228	-3.5831	-0.4580
C	-3.7981	-1.8226	-1.0854
C	-3.7279	-0.8862	-2.1160
C	-2.8826	-1.1184	-3.2063
H	-2.8563	-0.4914	-3.9183
C	-1.2303	-1.6076	-5.3845
H	-0.5948	-1.9076	-6.0685
H	-2.1269	-1.5478	-5.7738
H	-0.9594	-0.7265	-5.0521
C	-1.2567	-4.3811	-2.2735
H	-0.6310	-4.4561	-2.9829
C	-0.3715	-6.4139	-1.5851
H	-0.8686	-7.2513	-1.7712
H	0.2170	-6.2252	-2.3597
C	-4.7182	-1.6792	0.1211
H	-5.4868	-1.1048	-0.1276
H	-5.0745	-2.5709	0.3618
N	-1.8412	1.5511	5.1146
O	-1.9680	-2.3471	4.1446
C	-2.6396	-1.5197	3.2848
C	-2.6049	-0.1440	3.5784
C	-3.3018	0.7140	2.7458
H	-3.2891	1.6433	2.9435
C	-4.0214	0.2856	1.6352
C	-4.0259	-1.0772	1.3391
C	-3.3497	-1.9692	2.1775
H	-3.3762	-2.8989	1.9873
C	-2.0366	-3.7380	3.8691
H	-1.5187	-4.2303	4.5413
H	-2.9708	-4.0306	3.8969
H	-1.6658	-3.9146	2.9791
C	-1.8361	0.3329	4.7397
H	-1.3163	-0.2928	5.2288
C	-1.0053	1.8702	6.2677
H	-1.5773	2.1692	7.0193
H	-0.5132	1.0609	6.5557
C	-4.7621	1.3291	0.8066
H	-5.5168	0.8908	0.3372
H	-5.1421	2.0110	1.4153
N	-1.0405	3.7844	-4.0681
O	-1.5545	4.9074	-0.2436
C	-2.2773	3.8072	-0.6208
C	-2.1121	3.3699	-1.9483
C	-2.8544	2.2802	-2.3676
H	-2.7536	1.9850	-3.2649
C	-3.7416	1.5948	-1.5439
C	-3.8763	2.0217	-0.2217
C	-3.1560	3.1359	0.2214
H	-3.2693	3.4378	1.1140
C	-1.7515	5.3708	1.0840
H	-1.1833	6.1543	1.2438
H	-2.6914	5.6174	1.2073
H	-1.5144	4.6610	1.7165
C	-1.1664	4.0696	-2.8323
H	-0.6294	4.7620	-2.4660
C	-0.0400	4.5507	-4.8044
H	-0.4862	5.0968	-5.5002
H	0.4308	5.1642	-4.1852
C	-4.5140	0.4200	-2.1308
H	-5.3517	0.2963	-1.6165
H	-4.7639	0.6341	-3.0644
N	1.3979	-5.4741	-0.1870
O	1.2897	-3.6559	3.3958
C	2.1212	-3.0694	2.4793
C	2.1745	-3.6646	1.2055
C	3.0307	-3.1135	0.2683
H	3.0775	-3.5160	-0.5913
C	3.8276	-2.0016	0.5203
C	3.7455	-1.4043	1.7779
C	2.9063	-1.9550	2.7516
H	2.8722	-1.5608	3.6145
C	1.2664	-3.0778	4.6919
H	0.6371	-3.5721	5.2592
H	2.1629	-3.1194	5.0841
H	0.9815	-2.1419	4.6285
C	1.3277	-4.8324	0.9121
H	0.7048	-5.1187	1.5686
C	0.4717	-6.5921	-0.3365
H	0.9818	-7.4391	-0.3998
H	-0.1176	-6.6440	0.4571
C	4.7426	-1.5006	-0.5912
H	5.5032	-1.0113	-0.1858
H	5.1119	-2.2795	-1.0781
N	1.8062	2.9916	-4.4431
O	1.9939	-1.0180	-4.6418
C	2.6550	-0.4646	-3.5779
C	2.5988	0.9369	-3.4615
C	3.2846	1.5272	-2.4147
H	3.2573	2.4735	-2.3353
C	4.0130	0.8071	-1.4733
C	4.0387	-0.5840	-1.5841
C	3.3742	-1.2049	-2.6470
H	3.4150	-2.1493	-2.7326
C	2.0841	-2.4282	-4.7800
H	1.5722	-2.7123	-5.5673
H	3.0226	-2.6861	-4.8892
H	1.7180	-2.8592	-3.9798
C	1.8203	1.7173	-4.4364
H	1.3088	1.2509	-5.0868
C	0.9630	3.6182	-5.4565
H	1.5288	4.1295	-6.0890
H	0.4825	2.9190	-5.9680
C	4.7396	1.5769	-0.3773
H	5.5021	1.0333	-0.0535
H	5.1081	2.4115	-0.7613
N	0.9924	2.4616	4.9910
O	1.4808	4.6501	1.6557
C	2.2210	3.4989	1.7002
C	2.0654	2.6934	2.8440
C	2.8249	1.5406	2.9324
H	2.7306	0.9971	3.7060
C	3.7206	1.1367	1.9470
C	3.8457	1.9287	0.8065
C	3.1079	3.1128	0.7011
H	3.2147	3.6627	-0.0650
C	1.6680	5.4809	0.5195
H	1.0876	6.2679	0.5915
H	2.6036	5.7665	0.4749
H	1.4401	4.9812	-0.2922
C	1.1112	3.0938	3.8905
H	0.5629	3.8535	3.7399
C	-0.0179	2.9668	5.9149
H	0.4215	3.2949	6.7410
H	-0.4993	3.7263	5.4986
C	4.5119	-0.1462	2.1718
H	5.3504	-0.1030	1.6447
H	4.7605	-0.2075	3.1282
